Running from: /cluster/home/jorgfi
Job: vulkan_sim  ID: 23022844  Nodes: idun-07-03


ENVIRONMENT INFO
---------------------------
	- OS:	 Ubuntu 20.04.6 LTS
	- CPU:	 Intel(R) Xeon(R) Gold 6148 CPU @ 2.40GHz
	- RAM:	 753Gi

Wed Sep  3 18:57:36 2025       
+-----------------------------------------------------------------------------------------+
| NVIDIA-SMI 575.57.08              Driver Version: 575.57.08      CUDA Version: 12.9     |
|-----------------------------------------+------------------------+----------------------+
| GPU  Name                 Persistence-M | Bus-Id          Disp.A | Volatile Uncorr. ECC |
| Fan  Temp   Perf          Pwr:Usage/Cap |           Memory-Usage | GPU-Util  Compute M. |
|                                         |                        |               MIG M. |
|=========================================+========================+======================|
|   0  Tesla V100-PCIE-32GB           On  |   00000000:12:00.0 Off |                    0 |
| N/A   29C    P0             23W /  250W |       0MiB /  32768MiB |      0%      Default |
|                                         |                        |                  N/A |
+-----------------------------------------+------------------------+----------------------+
                                                                                         
+-----------------------------------------------------------------------------------------+
| Processes:                                                                              |
|  GPU   GI   CI              PID   Type   Process name                        GPU Memory |
|        ID   ID                                                               Usage      |
|=========================================================================================|
|  No running processes found                                                             |
+-----------------------------------------------------------------------------------------+


SIMULATION SETUP
---------------------
	- Device config:	 /cluster/home/jorgfi/vulkan-sim-root/vulkan-sim/configs/tested-cfgs/MOBILE_SIM_2
	- gpgpu_ptx_sim_mode:	 1
	- Scene:		 18
	- Dimensions:
		- Width:	 256
		- Height:	 256
	- Samples:		 5
	- Shader type:		 1




STARTING SIMULATION...
--------------------------------------------------------



GPGPU-Sim version 4.0.0 - Vulkan-Sim version 2.0.0 (build gpgpu-sim_git-commit-dc742faa6e5fcfaf415fe51eab71dcf9345388fd-modified_585.0) configured with GPUWattch.

----------------------------------------------------------------------------
INFO - If you only care about PTX execution, ignore this message. GPGPU-Sim supports PTX execution in modern CUDA.
If you want to run PTXPLUS (sm_1x SASS) with a modern card configuration - set the envronment variable
$PTXAS_CUDA_INSTALL_PATH to point a CUDA version compabible with your card configurations (i.e. 8+ for PASCAL, 9+ for VOLTA etc..)
For example: "export $PTXAS_CUDA_INSTALL_PATH=/usr/local/cuda-9.1"

The following text describes why:
If you are using PTXPLUS, only sm_1x is supported and it requires that the app and simulator binaries are compiled in CUDA 4.2 or less.
The simulator requires it since CUDA headers desribe struct sizes in the exec which change from gen to gen.
The apps require 4.2 because new versions of CUDA tools have dropped parsing support for generating sm_1x
When running using modern config (i.e. volta) and PTXPLUS with CUDA 4.2, the $PTXAS_CUDA_INSTALL_PATH env variable is required to get proper register usage
(and hence occupancy) using a version of CUDA that knows the register usage on the real card.

----------------------------------------------------------------------------
setup_environment succeeded
MESA: Linking to LLVM resource bind packing.
Vulkan SDK Header Version: 296

Vulkan Instance Extensions: 
- VK_KHR_device_group_creation (0.0.1)
- VK_KHR_external_fence_capabilities (0.0.1)
- VK_KHR_external_memory_capabilities (0.0.1)
- VK_KHR_external_semaphore_capabilities (0.0.1)
- VK_KHR_get_physical_device_properties2 (0.0.2)
- VK_KHR_get_surface_capabilities2 (0.0.1)
- VK_KHR_surface (0.0.25)
- VK_KHR_surface_protected_capabilities (0.0.1)
- VK_KHR_xcb_surface (0.0.6)
- VK_KHR_xlib_surface (0.0.6)
- VK_EXT_debug_report (0.0.10)
- VK_EXT_debug_utils (0.0.2)
- VK_KHR_portability_enumeration (0.0.1)
- VK_LUNARG_direct_driver_loading (0.0.1)

Vulkan Instance Layers: 
- VK_LAYER_NV_optimus (1.4.303) : NVIDIA Optimus layer
- VK_LAYER_NV_present (1.4.303) : NVIDIA GR2608 layer

Vulkan Devices: 
- [0] UnknownVendor 'llvmpipe (LLVM 10.0.0, 256 bits)' (CPU: vulkan 1.3.254, driver llvmpipe Mesa 23.2.0-devel (git-b8f3e3980e) (LLVM 10.0.0) - 0.0.1)

Setting Device [0]:
Getting ray tracing pipeline properties...
- loading '../assets/models/bunny.obj'... (216081 vertices, 72378 unique vertices, 1 materials) 0.714987s
- loading '../assets/textures/white.png'... (1 x 1 x 3) 0.000374193s
RTV: Creating device buffer Vertices of size 2606472
LVP: vkBuffer size 2606472 created at 0x55e6049adaa8
RTV: New vkBuffer created at 0x55e6049adaa8
LLVM: llvmpipe_resource_bind_backing: pipe_screen 0x55e6048f93c0; pipe_resource 0x55e604b6cb30; llvmpipe_resource 0x55e604b6cb30; pipe_memory_allocation 0x55e605650000;
LVP: Binding lvp_buffer 0x55e604ad5010: buffer->bo: 0x55e604b6cb30; buffer->pmem: 0x55e605650000; memory-offset: 0;


        *** GPGPU-Sim Simulator Version 4.0.0 - Vulkan-Sim version 2.0.0  [build gpgpu-sim_git-commit-dc742faa6e5fcfaf415fe51eab71dcf9345388fd_modified_1.0] ***


GPGPU-Sim PTX: simulation mode 0 (can change with PTX_SIM_MODE_FUNC environment variable:
               1=functional simulation only, 0=detailed performance simulator)
GPGPU-Sim PTX: overriding embedded ptx with ptx file (PTX_SIM_USE_PTX_FILE is set)
GPGPU-Sim: Configuration options:

-save_embedded_ptx                      0 # saves ptx files embedded in binary as <n>.ptx
-keep                                   0 # keep intermediate files created by GPGPU-Sim when interfacing with external programs
-gpgpu_ptx_save_converted_ptxplus                    0 # Saved converted ptxplus to a file
-gpgpu_occupancy_sm_number                   75 # The SM number to pass to ptxas when getting register usage for computing GPU occupancy. This parameter is required in the config.
-ptx_opcode_latency_int      4,13,4,5,145,32 # Opcode latencies for integers <ADD,MAX,MUL,MAD,DIV,SHFL>Default 1,1,19,25,145,32
-ptx_opcode_latency_fp          4,13,4,5,39 # Opcode latencies for single precision floating points <ADD,MAX,MUL,MAD,DIV>Default 1,1,1,1,30
-ptx_opcode_latency_dp         8,19,8,8,330 # Opcode latencies for double precision floating points <ADD,MAX,MUL,MAD,DIV>Default 8,8,8,8,335
-ptx_opcode_latency_sfu                  100 # Opcode latencies for SFU instructionsDefault 8
-ptx_opcode_latency_tesnor                   64 # Opcode latencies for Tensor instructionsDefault 64
-ptx_opcode_initiation_int          2,2,2,2,8,4 # Opcode initiation intervals for integers <ADD,MAX,MUL,MAD,DIV,SHFL>Default 1,1,4,4,32,4
-ptx_opcode_initiation_fp            2,2,2,2,4 # Opcode initiation intervals for single precision floating points <ADD,MAX,MUL,MAD,DIV>Default 1,1,1,1,5
-ptx_opcode_initiation_dp          4,4,4,4,130 # Opcode initiation intervals for double precision floating points <ADD,MAX,MUL,MAD,DIV>Default 8,8,8,8,130
-ptx_opcode_initiation_sfu                    8 # Opcode initiation intervals for sfu instructionsDefault 8
-ptx_opcode_initiation_tensor                   64 # Opcode initiation intervals for tensor instructionsDefault 64
-cdp_latency         7200,8000,100,12000,1600 # CDP API latency <cudaStreamCreateWithFlags, cudaGetParameterBufferV2_init_perWarp, cudaGetParameterBufferV2_perKernel, cudaLaunchDeviceV2_init_perWarp, cudaLaunchDevicV2_perKernel>Default 7200,8000,100,12000,1600
-network_mode                           2 # Interconnection network mode
-inter_config_file                   mesh # Interconnection network config file
-icnt_in_buffer_limit                  512 # in_buffer_limit
-icnt_out_buffer_limit                  512 # out_buffer_limit
-icnt_subnets                           2 # subnets
-icnt_arbiter_algo                      1 # arbiter_algo
-icnt_verbose                           0 # inct_verbose
-icnt_grant_cycles                      1 # grant_cycles
-gpgpu_ptx_use_cuobjdump                    1 # Use cuobjdump to extract ptx and sass from binaries
-gpgpu_experimental_lib_support                    0 # Try to extract code from cuda libraries [Broken because of unknown cudaGetExportTable]
-checkpoint_option                      0 #  checkpointing flag (0 = no checkpoint)
-checkpoint_kernel                      1 #  checkpointing during execution of which kernel (1- 1st kernel)
-checkpoint_CTA                         0 #  checkpointing after # of CTA (< less than total CTA)
-resume_option                          0 #  resume flag (0 = no resume)
-resume_kernel                          0 #  Resume from which kernel (1= 1st kernel)
-resume_CTA                             0 #  resume from which CTA 
-checkpoint_CTA_t                       0 #  resume from which CTA 
-checkpoint_insn_Y                      0 #  resume from which CTA 
-gpgpu_ptx_convert_to_ptxplus                    0 # Convert SASS (native ISA) to ptxplus and run ptxplus
-gpgpu_ptx_force_max_capability                   75 # Force maximum compute capability
-gpgpu_ptx_inst_debug_to_file                    0 # Dump executed instructions' debug information to file
-gpgpu_ptx_inst_debug_file       inst_debug.txt # Executed instructions' debug output file
-gpgpu_ptx_inst_debug_thread_uid                    1 # Thread UID for executed instructions' debug output
-gpgpu_simd_model                       1 # 1 = post-dominator
-gpgpu_simd_rec_time_out                   -1 # -1 = no reconvergence time out
-gpgpu_simd_rec_size                    6 # number of physical entries in the reconvergence table
-gpgpu_simd_st_size                     6 # number of physical entries in the splits table
-gpgpu_simd_rec_replacement                    0 # reconvergence table replacement policy
-gpgpu_simd_st_replacement                    0 # splits table replacement policy
-gpgpu_shader_core_pipeline              1024:32 # shader core pipeline config, i.e., {<nthread>:<warpsize>}
-gpgpu_tex_cache:l1  N:4:128:256,L:R:m:N:L,T:512:8,128:2 # per-shader L1 texture cache  (READ-ONLY) config  {<nsets>:<bsize>:<assoc>,<rep>:<wr>:<alloc>:<wr_alloc>,<mshr>:<N>:<merge>,<mq>:<rf>}
-gpgpu_const_cache:l1 N:128:64:8,L:R:f:N:L,S:2:64,4 # per-shader L1 constant memory cache  (READ-ONLY) config  {<nsets>:<bsize>:<assoc>,<rep>:<wr>:<alloc>:<wr_alloc>,<mshr>:<N>:<merge>,<mq>} 
-gpgpu_rt_cache:l1   S:32:128:16,L:R:m:L:P,A:256:256,32:0,32 # per-shader L1 constant memory cache  (READ-ONLY) config  {<nsets>:<bsize>:<assoc>,<rep>:<wr>:<alloc>:<wr_alloc>,<mshr>:<N>:<merge>,<mq>} 
-gpgpu_rt_use_l1                        1 # use existing L1 cache instead of dedicated L0 cache 
-gpgpu_rt_perfect_mem                    0 # assume 0 latency BVH accesses 
-gpgpu_rt_coherence_engine                    0 # enable coherency engine (ray sorting) 
-gpgpu_rt_coherence_engine_config 100,10,16,g,0,3,2,0.25 # max cycles, hash 
-gpgpu_rt_disable_rt_cache                    0 # bypass RT cache and connect RT unit directly to interconnect 
-gpgpu_rt_max_warps                     4 # max number of warps concurrently in one rt core 
-gpgpu_rt_max_mshr                     64 # max number of MSHR entries in RT unit 
-gpgpu_rt_coalesce_warps                    0 # try to coalesce memory requests between warps 
-gpgpu_rt_intersection_latency        4,8,8,4,8,8,8 # latency of pipelined intersection tests (7 types)
-gpgpu_rt_intersection_table_type                    0 # type of intersection table
-gpgpu_cache:il1     N:64:128:16,L:R:f:N:L,S:2:48,4 # shader L1 instruction cache config  {<nsets>:<bsize>:<assoc>,<rep>:<wr>:<alloc>:<wr_alloc>,<mshr>:<N>:<merge>,<mq>} 
-gpgpu_cache:dl1     S:1:128:256,L:L:s:N:L,A:256:8,16:0,32 # per-shader L1 data cache config  {<nsets>:<bsize>:<assoc>,<rep>:<wr>:<alloc>:<wr_alloc>,<mshr>:<N>:<merge>,<mq> | none}
-gpgpu_l1_banks                         4 # The number of L1 cache banks
-gpgpu_l1_banks_byte_interleaving                   32 # l1 banks byte interleaving granularity
-gpgpu_l1_banks_hashing_function                    0 # l1 banks hashing function
-gpgpu_l1_latency                      20 # L1 Hit Latency
-gpgpu_smem_latency                    20 # smem Latency
-gpgpu_cache:dl1PrefL1                 none # per-shader L1 data cache config  {<nsets>:<bsize>:<assoc>,<rep>:<wr>:<alloc>:<wr_alloc>,<mshr>:<N>:<merge>,<mq> | none}
-gpgpu_cache:dl1PrefShared                 none # per-shader L1 data cache config  {<nsets>:<bsize>:<assoc>,<rep>:<wr>:<alloc>:<wr_alloc>,<mshr>:<N>:<merge>,<mq> | none}
-gpgpu_gmem_skip_L1D                    0 # global memory access skip L1D cache (implements -Xptxas -dlcm=cg, default=no skip)
-gpgpu_perfect_mem                      0 # enable perfect memory mode (no cache miss)
-n_regfile_gating_group                    4 # group of lanes that should be read/written together)
-gpgpu_clock_gated_reg_file                    0 # enable clock gated reg file for power calculations
-gpgpu_clock_gated_lanes                    0 # enable clock gated lanes for power calculations
-gpgpu_shader_registers                32768 # Number of registers per shader core. Limits number of concurrent CTAs. (default 8192)
-gpgpu_registers_per_block                32768 # Maximum number of registers per CTA. (default 8192)
-gpgpu_ignore_resources_limitation                    0 # gpgpu_ignore_resources_limitation (default 0)
-gpgpu_shader_cta                      16 # Maximum number of concurrent CTAs in shader (default 8)
-gpgpu_num_cta_barriers                   16 # Maximum number of named barriers per CTA (default 16)
-gpgpu_n_clusters                       8 # number of processing clusters
-gpgpu_n_cores_per_cluster                    1 # number of simd cores per cluster
-gpgpu_n_cluster_ejection_buffer_size                   32 # number of packets in ejection buffer
-gpgpu_n_ldst_response_buffer_size                    2 # number of response packets in ld/st unit ejection buffer
-gpgpu_shmem_per_block                65536 # Size of shared memory per thread block or CTA (default 48kB)
-gpgpu_shmem_size                   65536 # Size of shared memory per shader core (default 16kB)
-gpgpu_adaptive_cache_config                    0 # adaptive_cache_config
-gpgpu_shmem_sizeDefault                65536 # Size of shared memory per shader core (default 16kB)
-gpgpu_shmem_size_PrefL1                16384 # Size of shared memory per shader core (default 16kB)
-gpgpu_shmem_size_PrefShared                16384 # Size of shared memory per shader core (default 16kB)
-gpgpu_shmem_num_banks                   32 # Number of banks in the shared memory in each shader core (default 16)
-gpgpu_shmem_limited_broadcast                    0 # Limit shared memory to do one broadcast per cycle (default on)
-gpgpu_shmem_warp_parts                    1 # Number of portions a warp is divided into for shared memory bank conflict check 
-gpgpu_mem_unit_ports                    1 # The number of memory transactions allowed per core cycle
-gpgpu_shmem_warp_parts                    1 # Number of portions a warp is divided into for shared memory bank conflict check 
-gpgpu_warpdistro_shader                   -1 # Specify which shader core to collect the warp size distribution from
-gpgpu_warp_issue_shader                    0 # Specify which shader core to collect the warp issue distribution from
-gpgpu_local_mem_map                    1 # Mapping from local memory space address to simulated GPU physical address space (default = enabled)
-gpgpu_num_reg_banks                   16 # Number of register banks (default = 8)
-gpgpu_reg_bank_use_warp_id                    0 # Use warp ID in mapping registers to banks (default = off)
-gpgpu_sub_core_model                    1 # Sub Core Volta/Pascal model (default = off)
-gpgpu_enable_specialized_operand_collector                    0 # enable_specialized_operand_collector
-gpgpu_operand_collector_num_units_sp                    4 # number of collector units (default = 4)
-gpgpu_operand_collector_num_units_dp                    0 # number of collector units (default = 0)
-gpgpu_operand_collector_num_units_sfu                    4 # number of collector units (default = 4)
-gpgpu_operand_collector_num_units_int                    0 # number of collector units (default = 0)
-gpgpu_operand_collector_num_units_tensor_core                    4 # number of collector units (default = 4)
-gpgpu_operand_collector_num_units_mem                    2 # number of collector units (default = 2)
-gpgpu_operand_collector_num_units_gen                    8 # number of collector units (default = 0)
-gpgpu_operand_collector_num_in_ports_sp                    1 # number of collector unit in ports (default = 1)
-gpgpu_operand_collector_num_in_ports_dp                    0 # number of collector unit in ports (default = 0)
-gpgpu_operand_collector_num_in_ports_sfu                    1 # number of collector unit in ports (default = 1)
-gpgpu_operand_collector_num_in_ports_int                    0 # number of collector unit in ports (default = 0)
-gpgpu_operand_collector_num_in_ports_tensor_core                    1 # number of collector unit in ports (default = 1)
-gpgpu_operand_collector_num_in_ports_mem                    1 # number of collector unit in ports (default = 1)
-gpgpu_operand_collector_num_in_ports_gen                    8 # number of collector unit in ports (default = 0)
-gpgpu_operand_collector_num_out_ports_sp                    1 # number of collector unit in ports (default = 1)
-gpgpu_operand_collector_num_out_ports_dp                    0 # number of collector unit in ports (default = 0)
-gpgpu_operand_collector_num_out_ports_sfu                    1 # number of collector unit in ports (default = 1)
-gpgpu_operand_collector_num_out_ports_int                    0 # number of collector unit in ports (default = 0)
-gpgpu_operand_collector_num_out_ports_tensor_core                    1 # number of collector unit in ports (default = 1)
-gpgpu_operand_collector_num_out_ports_mem                    1 # number of collector unit in ports (default = 1)
-gpgpu_operand_collector_num_out_ports_gen                    8 # number of collector unit in ports (default = 0)
-gpgpu_coalesce_arch                   75 # Coalescing arch (GT200 = 13, Fermi = 20)
-gpgpu_num_sched_per_core                    4 # Number of warp schedulers per core
-gpgpu_max_insn_issue_per_warp                    1 # Max number of instructions that can be issued per warp in one cycle by scheduler (either 1 or 2)
-gpgpu_dual_issue_diff_exec_units                    1 # should dual issue use two different execution unit resources (Default = 1)
-gpgpu_simt_core_sim_order                    1 # Select the simulation order of cores in a cluster (0=Fix, 1=Round-Robin)
-gpgpu_pipeline_widths 4,0,4,4,4,4,0,4,4,4,8,4,4,4,4 # Pipeline widths ID_OC_SP,ID_OC_DP,ID_OC_INT,ID_OC_SFU,ID_OC_MEM,OC_EX_SP,OC_EX_DP,OC_EX_INT,OC_EX_SFU,OC_EX_MEM,EX_WB,ID_OC_TENSOR_CORE,OC_EX_TENSOR_CORE,ID_OC_RT,OC_EX_RT
-gpgpu_tensor_core_avail                    1 # Tensor Core Available (default=0)
-gpgpu_num_sp_units                     4 # Number of SP units (default=1)
-gpgpu_num_dp_units                     0 # Number of DP units (default=0)
-gpgpu_num_int_units                    4 # Number of INT units (default=0)
-gpgpu_num_sfu_units                    4 # Number of SF units (default=1)
-gpgpu_num_tensor_core_units                    4 # Number of tensor_core units (default=1)
-gpgpu_num_rt_core_units                    1 # Number of rt core units (default=1)
-gpgpu_num_mem_units                    1 # Number if ldst units (default=1) WARNING: not hooked up to anything
-gpgpu_scheduler                      gto # Scheduler configuration: < lrr | gto | two_level_active > If two_level_active:<num_active_warps>:<inner_prioritization>:<outer_prioritization>For complete list of prioritization values see shader.h enum scheduler_prioritization_typeDefault: gto
-gpgpu_concurrent_kernel_sm                    0 # Support concurrent kernels on a SM (default = disabled)
-gpgpu_perfect_inst_const_cache                    1 # perfect inst and const cache mode, so all inst and const hits in the cache(default = disabled)
-gpgpu_inst_fetch_throughput                    4 # the number of fetched intruction per warp each cycle
-gpgpu_reg_file_port_throughput                    2 # the number ports of the register file
-specialized_unit_1         0,4,4,4,4,BRA # specialized unit config {<enabled>,<num_units>:<latency>:<initiation>,<ID_OC_SPEC>:<OC_EX_SPEC>,<NAME>}
-specialized_unit_2         0,4,4,4,4,BRA # specialized unit config {<enabled>,<num_units>:<latency>:<initiation>,<ID_OC_SPEC>:<OC_EX_SPEC>,<NAME>}
-specialized_unit_3         0,4,4,4,4,BRA # specialized unit config {<enabled>,<num_units>:<latency>:<initiation>,<ID_OC_SPEC>:<OC_EX_SPEC>,<NAME>}
-specialized_unit_4         0,4,4,4,4,BRA # specialized unit config {<enabled>,<num_units>:<latency>:<initiation>,<ID_OC_SPEC>:<OC_EX_SPEC>,<NAME>}
-specialized_unit_5         0,4,4,4,4,BRA # specialized unit config {<enabled>,<num_units>:<latency>:<initiation>,<ID_OC_SPEC>:<OC_EX_SPEC>,<NAME>}
-specialized_unit_6         0,4,4,4,4,BRA # specialized unit config {<enabled>,<num_units>:<latency>:<initiation>,<ID_OC_SPEC>:<OC_EX_SPEC>,<NAME>}
-specialized_unit_7         0,4,4,4,4,BRA # specialized unit config {<enabled>,<num_units>:<latency>:<initiation>,<ID_OC_SPEC>:<OC_EX_SPEC>,<NAME>}
-specialized_unit_8         0,4,4,4,4,BRA # specialized unit config {<enabled>,<num_units>:<latency>:<initiation>,<ID_OC_SPEC>:<OC_EX_SPEC>,<NAME>}
-gpgpu_perf_sim_memcpy                    1 # Fill the L2 cache on memcpy
-gpgpu_simple_dram_model                    0 # simple_dram_model with fixed latency and BW
-gpgpu_dram_scheduler                    1 # 0 = fifo, 1 = FR-FCFS (defaul)
-gpgpu_dram_partition_queues          64:64:64:64 # i2$:$2d:d2$:$2i
-l2_ideal                               0 # Use a ideal L2 cache that always hit
-gpgpu_cache:dl2     S:64:128:16,L:B:m:L:P,A:192:4,32:0,32 # unified banked L2 data cache config  {<nsets>:<bsize>:<assoc>,<rep>:<wr>:<alloc>:<wr_alloc>,<mshr>:<N>:<merge>,<mq>}
-gpgpu_cache:dl2_texture_only                    0 # L2 cache used for texture only
-gpgpu_n_mem                            4 # number of memory modules (e.g. memory controllers) in gpu
-gpgpu_n_sub_partition_per_mchannel                    1 # number of memory subpartition in each memory module
-gpgpu_n_mem_per_ctrlr                    1 # number of memory chips per memory controller
-gpgpu_memlatency_stat                   14 # track and display latency statistics 0x2 enables MC, 0x4 enables queue logs
-gpgpu_frfcfs_dram_sched_queue_size                   64 # 0 = unlimited (default); # entries per chip
-gpgpu_dram_return_queue_size                  192 # 0 = unlimited (default); # entries per chip
-gpgpu_dram_buswidth                    2 # default = 4 bytes (8 bytes per cycle at DDR)
-gpgpu_dram_burst_length                    8 # Burst length of each DRAM request (default = 4 data bus cycle)
-dram_data_command_freq_ratio                    2 # Frequency ratio between DRAM data bus and command bus (default = 2 times, i.e. DDR)
-gpgpu_dram_timing_opt nbk=16:CCD=4:RRD=10:RCD=20:RAS=50:RP=20:RC=62: CL=20:WL=8:CDLR=9:WR=20:nbkgrp=4:CCDL=4:RTPL=4 # DRAM timing parameters = {nbk:tCCD:tRRD:tRCD:tRAS:tRP:tRC:CL:WL:tCDLR:tWR:nbkgrp:tCCDL:tRTPL}
-gpgpu_l2_rop_latency                  160 # ROP queue latency (default 85)
-dram_latency                         100 # DRAM latency (default 30)
-dram_dual_bus_interface                    0 # dual_bus_interface (default = 0) 
-dram_bnk_indexing_policy                    0 # dram_bnk_indexing_policy (0 = normal indexing, 1 = Xoring with the higher bits) (Default = 0)
-dram_bnkgrp_indexing_policy                    1 # dram_bnkgrp_indexing_policy (0 = take higher bits, 1 = take lower bits) (Default = 0)
-dram_seperate_write_queue_enable                    0 # Seperate_Write_Queue_Enable
-dram_write_queue_size             32:28:16 # Write_Queue_Size
-dram_elimnate_rw_turnaround                    0 # elimnate_rw_turnaround i.e set tWTR and tRTW = 0
-icnt_flit_size                        40 # icnt_flit_size
-gpgpu_mem_addr_mapping dramid@8;00000000.00000000.00000000.00000000.0000RRRR.RRRRRRRR.RBBBCCCC.BCCSSSSS # mapping memory address to dram model {dramid@<start bit>;<memory address map>}
-gpgpu_mem_addr_test                    0 # run sweep test to check address mapping for aliased address
-gpgpu_mem_address_mask                    1 # 0 = old addressing mask, 1 = new addressing mask, 2 = new add. mask + flipped bank sel and chip sel bits
-gpgpu_memory_partition_indexing                    0 # 0 = no indexing, 1 = bitwise xoring, 2 = IPoly, 3 = custom indexing
-gpuwattch_xml_file         gpuwattch.xml # GPUWattch XML file
-power_simulation_enabled                    0 # Turn on power simulator (1=On, 0=Off)
-power_per_cycle_dump                    0 # Dump detailed power output each cycle
-power_trace_enabled                    1 # produce a file for the power trace (1=On, 0=Off)
-power_trace_zlevel                     6 # Compression level of the power trace output log (0=no comp, 9=highest)
-steady_power_levels_enabled                    1 # produce a file for the steady power levels (1=On, 0=Off)
-steady_state_definition                  8:4 # allowed deviation:number of samples
-gpgpu_intermittent_stats                    0 # print intermittent stats
-gpgpu_intermittent_stats_freq                10000 # intermittent stats frequency
-gpgpu_max_cycle                        0 # terminates gpu simulation early (0 = no limit)
-gpgpu_max_insn                         0 # terminates gpu simulation early (0 = no limit)
-gpgpu_max_cta                          0 # terminates gpu simulation early (0 = no limit)
-gpgpu_max_completed_cta                    0 # terminates gpu simulation early (0 = no limit)
-gpgpu_runtime_stat                   500 # display runtime statistics such as dram utilization {<freq>:<flag>}
-liveness_message_freq                    1 # Minimum number of seconds between simulation liveness messages (0 = always print)
-gpgpu_compute_capability_major                    7 # Major compute capability version number
-gpgpu_compute_capability_minor                    5 # Minor compute capability version number
-gpgpu_flush_l1_cache                    1 # Flush L1 cache at the end of each kernel call
-gpgpu_flush_l2_cache                    0 # Flush L2 cache at the end of each kernel call
-gpgpu_deadlock_detect                    1 # Stop the simulation at deadlock (1=on (default), 0=off)
-gpgpu_ptx_instruction_classification                    1 # if enabled will classify ptx instruction types per kernel (Max 255 kernels now)
-gpgpu_ptx_sim_mode                     1 # Select between Performance (default) or Functional simulation (1)
-gpgpu_clock_domains 1365.0:1365.0:1365.0:3500.0 # Clock Domain Frequencies in MhZ {<Core Clock>:<ICNT Clock>:<L2 Clock>:<DRAM Clock>}
-gpgpu_max_concurrent_kernel                    8 # maximum kernels that can run concurrently on GPU
-gpgpu_cflog_interval                    0 # Interval between each snapshot in control flow logger
-visualizer_enabled                     0 # Turn on visualizer output (1=On, 0=Off)
-visualizer_outputfile       regular_ship16 # Specifies the output log file for visualizer
-visualizer_zlevel                      6 # Compression level of the visualizer output log (0=no comp, 9=highest)
-gpgpu_stack_size_limit                 1024 # GPU thread stack size
-gpgpu_heap_size_limit              8388608 # GPU malloc heap size 
-gpgpu_runtime_sync_depth_limit                    2 # GPU device runtime synchronize depth
-gpgpu_runtime_pending_launch_count_limit                 2048 # GPU device runtime pending launch count
-trace_enabled                          0 # Turn on traces
-trace_components                    none # comma seperated list of traces to enable. Complete list found in trace_streams.tup. Default none
-trace_sampling_core                    0 # The core which is printed using CORE_DPRINTF. Default 0
-trace_sampling_memory_partition                   -1 # The memory partition which is printed using MEMPART_DPRINTF. Default -1 (i.e. all)
-enable_ptx_file_line_stats                    1 # Turn on PTX source line statistic profiling. (1 = On)
-ptx_line_stats_filename gpgpu_inst_stats.txt # Output file for PTX source line statistics.
-gpgpu_kernel_launch_latency                 5000 # Kernel launch latency in cycles. Default: 0
-gpgpu_cdp_enabled                      0 # Turn on CDP
-gpgpu_TB_launch_latency                    0 # thread block launch latency in cycles. Default: 0
-gpgpu_max_simulated_rt_kernels                    1 # Max simulated kernels, used to limit how many frames we render. Default: 0
Streaming cache with 4096 mshr
GPGPU-Sim: Ray Coherence Engine Settings:
	Enabled: No
	Max cycles: 100
	Max packets: 16
	Sorting hash: grid-spherical
	Bits: 3-2
DRAM Timing Options:
nbk                                    16 # number of banks
CCD                                     4 # column to column delay
RRD                                    10 # minimal delay between activation of rows in different banks
RCD                                    20 # row to column delay
RAS                                    50 # time needed to activate row
RP                                     20 # time needed to precharge (deactivate) row
RC                                     62 # row cycle time
CDLR                                    9 # switching from write to read (changes tWTR)
WR                                     20 # last data-in to row precharge
CL                                     20 # CAS latency
WL                                      8 # Write latency
nbkgrp                                  4 # number of bank groups
CCDL                                    4 # column to column delay between accesses to different bank groups
RTPL                                    4 # read to precharge delay between accesses to different bank groups
Total number of memory sub partition = 4
addr_dec_mask[CHIP]  = 0000000000000300 	high:10 low:8
addr_dec_mask[BK]    = 000000000001c080 	high:17 low:7
addr_dec_mask[ROW]   = 000000003ffe0000 	high:30 low:17
addr_dec_mask[COL]   = 0000000000003c7f 	high:14 low:0
addr_dec_mask[BURST] = 000000000000001f 	high:5 low:0
sub_partition_id_mask = 0000000000000000
GPGPU-Sim uArch: clock freqs: 1365000000.000000:1365000000.000000:1365000000.000000:3500000000.000000
GPGPU-Sim uArch: clock periods: 0.00000000073260073260:0.00000000073260073260:0.00000000073260073260:0.00000000028571428571
*** Initializing Memory Statistics ***
GPGPU-Sim uArch: performance model initialization complete.
gpgpusim: binding gpgpusim buffer 0xc0000000 (size 2606472) to vulkan buffer 0x55e605650000
LVP: gpgpusim buffer size 2606472 allocated at 0xc0000000
RTV: Bind buffer memory for vkBuffer 0x55e6049adaa8
LVP: vkBuffer size 2606472 created at 0x55e607b88958
RTV: New vkBuffer created at 0x55e607b88958
LLVM: llvmpipe_resource_bind_backing: pipe_screen 0x55e6048f93c0; pipe_resource 0x55e6089a4bb0; llvmpipe_resource 0x55e6089a4bb0; pipe_memory_allocation 0x55e6089a5000;
LVP: Binding lvp_buffer 0x55e6089a4b30: buffer->bo: 0x55e6089a4bb0; buffer->pmem: 0x55e6089a5000; memory-offset: 0;
gpgpusim: binding gpgpusim buffer 0xc027c600 (size 2606472) to vulkan buffer 0x55e6089a5000
LVP: gpgpusim buffer size 2606472 allocated at 0xc027c600
RTV: Bind buffer memory for vkBuffer 0x55e607b88958
LVP: Finding mapped memory for mem 0x55e6089a4dc0: mem->pmem 0x55e6089a5000 
LVP: Identified at 0x55e6089a5000
LVP: Command Buffer:
	VK_CMD_COPY_BUFFER2
RTV: Creating device buffer Indices of size 1728696
LVP: vkBuffer size 1728696 created at 0x55e607b88958
RTV: New vkBuffer created at 0x55e607b88958
LLVM: llvmpipe_resource_bind_backing: pipe_screen 0x55e6048f93c0; pipe_resource 0x55e6089a5000; llvmpipe_resource 0x55e6089a5000; pipe_memory_allocation 0x55e6089a6000;
LVP: Binding lvp_buffer 0x55e6089a4dc0: buffer->bo: 0x55e6089a5000; buffer->pmem: 0x55e6089a6000; memory-offset: 0;
gpgpusim: binding gpgpusim buffer 0xc04f8c00 (size 1728696) to vulkan buffer 0x55e6089a6000
LVP: gpgpusim buffer size 1728696 allocated at 0xc04f8c00
RTV: Bind buffer memory for vkBuffer 0x55e607b88958
LVP: vkBuffer size 1728696 created at 0x55e609612bf8
RTV: New vkBuffer created at 0x55e609612bf8
LLVM: llvmpipe_resource_bind_backing: pipe_screen 0x55e6048f93c0; pipe_resource 0x55e609bd6820; llvmpipe_resource 0x55e609bd6820; pipe_memory_allocation 0x55e609bd7000;
LVP: Binding lvp_buffer 0x55e6096144b0: buffer->bo: 0x55e609bd6820; buffer->pmem: 0x55e609bd7000; memory-offset: 0;
gpgpusim: binding gpgpusim buffer 0xc069ed00 (size 1728696) to vulkan buffer 0x55e609bd7000
LVP: gpgpusim buffer size 1728696 allocated at 0xc069ed00
RTV: Bind buffer memory for vkBuffer 0x55e609612bf8
LVP: Finding mapped memory for mem 0x55e609bd6a30: mem->pmem 0x55e609bd7000 
LVP: Identified at 0x55e609bd7000
LVP: Command Buffer:
	VK_CMD_COPY_BUFFER2
RTV: Creating device buffer Materials of size 160
LVP: vkBuffer size 160 created at 0x55e609612bf8
RTV: New vkBuffer created at 0x55e609612bf8
LLVM: llvmpipe_resource_bind_backing: pipe_screen 0x55e6048f93c0; pipe_resource 0x55e609bd7000; llvmpipe_resource 0x55e609bd7000; pipe_memory_allocation 0x55e609bd8000;
LVP: Binding lvp_buffer 0x55e609bd6a30: buffer->bo: 0x55e609bd7000; buffer->pmem: 0x55e609bd8000; memory-offset: 0;
gpgpusim: binding gpgpusim buffer 0xc0844e00 (size 160) to vulkan buffer 0x55e609bd8000
LVP: gpgpusim buffer size 160 allocated at 0xc0844e00
RTV: Bind buffer memory for vkBuffer 0x55e609612bf8
LVP: vkBuffer size 160 created at 0x55e609bd7418
RTV: New vkBuffer created at 0x55e609bd7418
LLVM: llvmpipe_resource_bind_backing: pipe_screen 0x55e6048f93c0; pipe_resource 0x55e609bd7430; llvmpipe_resource 0x55e609bd7430; pipe_memory_allocation 0x55e609bd9000;
LVP: Binding lvp_buffer 0x55e60a414fb0: buffer->bo: 0x55e609bd7430; buffer->pmem: 0x55e609bd9000; memory-offset: 0;
gpgpusim: binding gpgpusim buffer 0xc0844f00 (size 160) to vulkan buffer 0x55e609bd9000
LVP: gpgpusim buffer size 160 allocated at 0xc0844f00
RTV: Bind buffer memory for vkBuffer 0x55e609bd7418
LVP: Finding mapped memory for mem 0x55e609bd7640: mem->pmem 0x55e609bd9000 
LVP: Identified at 0x55e609bd9000
LVP: Command Buffer:
	VK_CMD_COPY_BUFFER2
RTV: Creating device buffer Offsets of size 16
LVP: vkBuffer size 16 created at 0x55e609bd7418
RTV: New vkBuffer created at 0x55e609bd7418
LLVM: llvmpipe_resource_bind_backing: pipe_screen 0x55e6048f93c0; pipe_resource 0x55e609bd7bc0; llvmpipe_resource 0x55e609bd7bc0; pipe_memory_allocation 0x55e609bda000;
LVP: Binding lvp_buffer 0x55e609bd7640: buffer->bo: 0x55e609bd7bc0; buffer->pmem: 0x55e609bda000; memory-offset: 0;
gpgpusim: binding gpgpusim buffer 0xc0845000 (size 16) to vulkan buffer 0x55e609bda000
LVP: gpgpusim buffer size 16 allocated at 0xc0845000
RTV: Bind buffer memory for vkBuffer 0x55e609bd7418
LVP: vkBuffer size 16 created at 0x55e609bd7968
RTV: New vkBuffer created at 0x55e609bd7968
LLVM: llvmpipe_resource_bind_backing: pipe_screen 0x55e6048f93c0; pipe_resource 0x55e609bd7dd0; llvmpipe_resource 0x55e609bd7dd0; pipe_memory_allocation 0x55e609bdb000;
LVP: Binding lvp_buffer 0x55e609bd7a90: buffer->bo: 0x55e609bd7dd0; buffer->pmem: 0x55e609bdb000; memory-offset: 0;
gpgpusim: binding gpgpusim buffer 0xc0845100 (size 16) to vulkan buffer 0x55e609bdb000
LVP: gpgpusim buffer size 16 allocated at 0xc0845100
RTV: Bind buffer memory for vkBuffer 0x55e609bd7968
LVP: Finding mapped memory for mem 0x55e609bd93d0: mem->pmem 0x55e609bdb000 
LVP: Identified at 0x55e609bdb000
LVP: Command Buffer:
	VK_CMD_COPY_BUFFER2
RTV: Creating device buffer AABBs of size 48
LVP: vkBuffer size 48 created at 0x55e609bdb008
RTV: New vkBuffer created at 0x55e609bdb008
LLVM: llvmpipe_resource_bind_backing: pipe_screen 0x55e6048f93c0; pipe_resource 0x55e609bd9600; llvmpipe_resource 0x55e609bd9600; pipe_memory_allocation 0x55e609bdc000;
LVP: Binding lvp_buffer 0x55e609bd93d0: buffer->bo: 0x55e609bd9600; buffer->pmem: 0x55e609bdc000; memory-offset: 0;
gpgpusim: binding gpgpusim buffer 0xc0845200 (size 48) to vulkan buffer 0x55e609bdc000
LVP: gpgpusim buffer size 48 allocated at 0xc0845200
RTV: Bind buffer memory for vkBuffer 0x55e609bdb008
LVP: vkBuffer size 48 created at 0x55e609bd7fe8
RTV: New vkBuffer created at 0x55e609bd7fe8
LLVM: llvmpipe_resource_bind_backing: pipe_screen 0x55e6048f93c0; pipe_resource 0x55e609bd9850; llvmpipe_resource 0x55e609bd9850; pipe_memory_allocation 0x55e609bdd000;
LVP: Binding lvp_buffer 0x55e609bd9580: buffer->bo: 0x55e609bd9850; buffer->pmem: 0x55e609bdd000; memory-offset: 0;
gpgpusim: binding gpgpusim buffer 0xc0845300 (size 48) to vulkan buffer 0x55e609bdd000
LVP: gpgpusim buffer size 48 allocated at 0xc0845300
RTV: Bind buffer memory for vkBuffer 0x55e609bd7fe8
LVP: Finding mapped memory for mem 0x55e609bd9a60: mem->pmem 0x55e609bdd000 
LVP: Identified at 0x55e609bdd000
LVP: Command Buffer:
	VK_CMD_COPY_BUFFER2
RTV: Creating device buffer Procedurals of size 32
LVP: vkBuffer size 32 created at 0x55e609bd7fe8
RTV: New vkBuffer created at 0x55e609bd7fe8
LLVM: llvmpipe_resource_bind_backing: pipe_screen 0x55e6048f93c0; pipe_resource 0x55e609bda420; llvmpipe_resource 0x55e609bda420; pipe_memory_allocation 0x55e609bde000;
LVP: Binding lvp_buffer 0x55e609bd9a60: buffer->bo: 0x55e609bda420; buffer->pmem: 0x55e609bde000; memory-offset: 0;
gpgpusim: binding gpgpusim buffer 0xc0845400 (size 32) to vulkan buffer 0x55e609bde000
LVP: gpgpusim buffer size 32 allocated at 0xc0845400
RTV: Bind buffer memory for vkBuffer 0x55e609bd7fe8
LVP: vkBuffer size 32 created at 0x55e609bd9ba8
RTV: New vkBuffer created at 0x55e609bd9ba8
LLVM: llvmpipe_resource_bind_backing: pipe_screen 0x55e6048f93c0; pipe_resource 0x55e609bda630; llvmpipe_resource 0x55e609bda630; pipe_memory_allocation 0x55e609bdf000;
LVP: Binding lvp_buffer 0x55e609bd9cd0: buffer->bo: 0x55e609bda630; buffer->pmem: 0x55e609bdf000; memory-offset: 0;
gpgpusim: binding gpgpusim buffer 0xc0845500 (size 32) to vulkan buffer 0x55e609bdf000
LVP: gpgpusim buffer size 32 allocated at 0xc0845500
RTV: Bind buffer memory for vkBuffer 0x55e609bd9ba8
LVP: Finding mapped memory for mem 0x55e609bda840: mem->pmem 0x55e609bdf000 
LVP: Identified at 0x55e609bdf000
LVP: Command Buffer:
	VK_CMD_COPY_BUFFER2
RTV: Creating device buffer CubeAABBs of size 48
LVP: vkBuffer size 48 created at 0x55e609bd9ba8
RTV: New vkBuffer created at 0x55e609bd9ba8
LLVM: llvmpipe_resource_bind_backing: pipe_screen 0x55e6048f93c0; pipe_resource 0x55e609bda9f0; llvmpipe_resource 0x55e609bda9f0; pipe_memory_allocation 0x55e609be0000;
LVP: Binding lvp_buffer 0x55e609bda840: buffer->bo: 0x55e609bda9f0; buffer->pmem: 0x55e609be0000; memory-offset: 0;
gpgpusim: binding gpgpusim buffer 0xc0845600 (size 48) to vulkan buffer 0x55e609be0000
LVP: gpgpusim buffer size 48 allocated at 0xc0845600
RTV: Bind buffer memory for vkBuffer 0x55e609bd9ba8
LVP: vkBuffer size 48 created at 0x55e609bd9e68
RTV: New vkBuffer created at 0x55e609bd9e68
LLVM: llvmpipe_resource_bind_backing: pipe_screen 0x55e6048f93c0; pipe_resource 0x55e609bdac00; llvmpipe_resource 0x55e609bdac00; pipe_memory_allocation 0x55e609be1000;
LVP: Binding lvp_buffer 0x55e609bda8c0: buffer->bo: 0x55e609bdac00; buffer->pmem: 0x55e609be1000; memory-offset: 0;
gpgpusim: binding gpgpusim buffer 0xc0845700 (size 48) to vulkan buffer 0x55e609be1000
LVP: gpgpusim buffer size 48 allocated at 0xc0845700
RTV: Bind buffer memory for vkBuffer 0x55e609bd9e68
LVP: Finding mapped memory for mem 0x55e609bdae10: mem->pmem 0x55e609be1000 
LVP: Identified at 0x55e609be1000
LVP: Command Buffer:
	VK_CMD_COPY_BUFFER2
RTV: Creating device buffer ProceduralCubes of size 32
LVP: vkBuffer size 32 created at 0x55e609bd9e68
RTV: New vkBuffer created at 0x55e609bd9e68
LLVM: llvmpipe_resource_bind_backing: pipe_screen 0x55e6048f93c0; pipe_resource 0x55e609bd84f0; llvmpipe_resource 0x55e609bd84f0; pipe_memory_allocation 0x55e609be2000;
LVP: Binding lvp_buffer 0x55e609bdae10: buffer->bo: 0x55e609bd84f0; buffer->pmem: 0x55e609be2000; memory-offset: 0;
gpgpusim: binding gpgpusim buffer 0xc0845800 (size 32) to vulkan buffer 0x55e609be2000
LVP: gpgpusim buffer size 32 allocated at 0xc0845800
RTV: Bind buffer memory for vkBuffer 0x55e609bd9e68
LVP: vkBuffer size 32 created at 0x55e609bdaf78
RTV: New vkBuffer created at 0x55e609bdaf78
LLVM: llvmpipe_resource_bind_backing: pipe_screen 0x55e6048f93c0; pipe_resource 0x55e609bd8700; llvmpipe_resource 0x55e609bd8700; pipe_memory_allocation 0x55e609be3000;
LVP: Binding lvp_buffer 0x55e609bd83c0: buffer->bo: 0x55e609bd8700; buffer->pmem: 0x55e609be3000; memory-offset: 0;
gpgpusim: binding gpgpusim buffer 0xc0845900 (size 32) to vulkan buffer 0x55e609be3000
LVP: gpgpusim buffer size 32 allocated at 0xc0845900
RTV: Bind buffer memory for vkBuffer 0x55e609bdaf78
LVP: Finding mapped memory for mem 0x55e609bd8910: mem->pmem 0x55e609be3000 
LVP: Identified at 0x55e609be3000
LVP: Command Buffer:
	VK_CMD_COPY_BUFFER2
RTV: Creating device buffer CylinderAABBs of size 48
LVP: vkBuffer size 48 created at 0x55e609bdaf78
RTV: New vkBuffer created at 0x55e609bdaf78
LLVM: llvmpipe_resource_bind_backing: pipe_screen 0x55e6048f93c0; pipe_resource 0x55e609bd8700; llvmpipe_resource 0x55e609bd8700; pipe_memory_allocation 0x55e609be4000;
LVP: Binding lvp_buffer 0x55e609bd8910: buffer->bo: 0x55e609bd8700; buffer->pmem: 0x55e609be4000; memory-offset: 0;
gpgpusim: binding gpgpusim buffer 0xc0845a00 (size 48) to vulkan buffer 0x55e609be4000
LVP: gpgpusim buffer size 48 allocated at 0xc0845a00
RTV: Bind buffer memory for vkBuffer 0x55e609bdaf78
LVP: vkBuffer size 48 created at 0x55e609bd89f8
RTV: New vkBuffer created at 0x55e609bd89f8
LLVM: llvmpipe_resource_bind_backing: pipe_screen 0x55e6048f93c0; pipe_resource 0x55e609bd8b50; llvmpipe_resource 0x55e609bd8b50; pipe_memory_allocation 0x55e609be5000;
LVP: Binding lvp_buffer 0x55e609bd8a90: buffer->bo: 0x55e609bd8b50; buffer->pmem: 0x55e609be5000; memory-offset: 0;
gpgpusim: binding gpgpusim buffer 0xc0845b00 (size 48) to vulkan buffer 0x55e609be5000
LVP: gpgpusim buffer size 48 allocated at 0xc0845b00
RTV: Bind buffer memory for vkBuffer 0x55e609bd89f8
LVP: Finding mapped memory for mem 0x55e609bd8d60: mem->pmem 0x55e609be5000 
LVP: Identified at 0x55e609be5000
LVP: Command Buffer:
	VK_CMD_COPY_BUFFER2
RTV: Creating device buffer ProceduralCylinders of size 32
LVP: vkBuffer size 32 created at 0x55e609bd89f8
RTV: New vkBuffer created at 0x55e609bd89f8
LLVM: llvmpipe_resource_bind_backing: pipe_screen 0x55e6048f93c0; pipe_resource 0x55e609bd8b50; llvmpipe_resource 0x55e609bd8b50; pipe_memory_allocation 0x55e609be6000;
LVP: Binding lvp_buffer 0x55e609bd8d60: buffer->bo: 0x55e609bd8b50; buffer->pmem: 0x55e609be6000; memory-offset: 0;
gpgpusim: binding gpgpusim buffer 0xc0845c00 (size 32) to vulkan buffer 0x55e609be6000
LVP: gpgpusim buffer size 32 allocated at 0xc0845c00
RTV: Bind buffer memory for vkBuffer 0x55e609bd89f8
LVP: vkBuffer size 32 created at 0x55e609bd8ec8
RTV: New vkBuffer created at 0x55e609bd8ec8
LLVM: llvmpipe_resource_bind_backing: pipe_screen 0x55e6048f93c0; pipe_resource 0x55e609be4450; llvmpipe_resource 0x55e609be4450; pipe_memory_allocation 0x55e609be7000;
LVP: Binding lvp_buffer 0x55e609be43d0: buffer->bo: 0x55e609be4450; buffer->pmem: 0x55e609be7000; memory-offset: 0;
gpgpusim: binding gpgpusim buffer 0xc0845d00 (size 32) to vulkan buffer 0x55e609be7000
LVP: gpgpusim buffer size 32 allocated at 0xc0845d00
RTV: Bind buffer memory for vkBuffer 0x55e609bd8ec8
LVP: Finding mapped memory for mem 0x55e609be4660: mem->pmem 0x55e609be7000 
LVP: Identified at 0x55e609be7000
LVP: Command Buffer:
	VK_CMD_COPY_BUFFER2
LVP: vkBuffer size 4 created at 0x55e609bd9fd8
RTV: New vkBuffer created at 0x55e609bd9fd8
LLVM: llvmpipe_resource_bind_backing: pipe_screen 0x55e6048f93c0; pipe_resource 0x55e609be4450; llvmpipe_resource 0x55e609be4450; pipe_memory_allocation 0x55e609be8000;
LVP: Binding lvp_buffer 0x55e609be4660: buffer->bo: 0x55e609be4450; buffer->pmem: 0x55e609be8000; memory-offset: 0;
gpgpusim: binding gpgpusim buffer 0xc0845e00 (size 4) to vulkan buffer 0x55e609be8000
LVP: gpgpusim buffer size 4 allocated at 0xc0845e00
RTV: Bind buffer memory for vkBuffer 0x55e609bd9fd8
LVP: Finding mapped memory for mem 0x55e609be43d0: mem->pmem 0x55e609be8000 
LVP: Identified at 0x55e609be8000
LVP: Image created at 0x55e609be3018
RTV: Creating image at 0x55e609be8020
LLVM: llvmpipe_resource_bind_backing: pipe_screen 0x55e6048f93c0; pipe_resource 0x55e609be4860; llvmpipe_resource 0x55e609be4860; pipe_memory_allocation 0x55e609be9000;
gpgpusim: binding gpgpusim buffer 0xc0845f00 (size 256) to vulkan buffer 0x55e609be9000
LVP: Image 0x55e609be8020 bound to pmem 0x55e609be9000 using pointer 0xc0845f00
LVP: Creating image_view for image 0x55e609be8020
RTV: Creating image view at 0x55e609be4e50
LVP: Command Buffer:
	VK_CMD_PIPELINE_BARRIER2
LVP: Command Buffer:
	VK_CMD_COPY_BUFFER_TO_IMAGE2
LVP: Command Buffer:
	VK_CMD_PIPELINE_BARRIER2
lvp_GetAccelerationStructureBuildSizesKHR
LVP: Size of BVH structure is 0x6c0
RTV: Rounding size of BVH structure up to 0x700
lvp_GetAccelerationStructureBuildSizesKHR
LVP: Size of BVH structure is 0x11957c0
RTV: Rounding size of BVH structure up to 0x1195800
RTV: Total accel structure size = 0x700 + 0x1195800 + ... = 0x1195f00
LVP: vkBuffer size 18439936 created at 0x55e609be8008
RTV: New vkBuffer created at 0x55e609be8008
LLVM: llvmpipe_resource_bind_backing: pipe_screen 0x55e6048f93c0; pipe_resource 0x55e609be5680; llvmpipe_resource 0x55e609be5680; pipe_memory_allocation 0x14ce14927000;
LVP: Binding lvp_buffer 0x55e609be43d0: buffer->bo: 0x55e609be5680; buffer->pmem: 0x14ce14927000; memory-offset: 0;
gpgpusim: binding gpgpusim buffer 0xc0846000 (size 18439936) to vulkan buffer 0x14ce14927000
LVP: gpgpusim buffer size 18439936 allocated at 0xc0846000
RTV: Bind buffer memory for vkBuffer 0x55e609be8008
LVP: vkBuffer size 9796096 created at 0x55e609be3fe8
RTV: New vkBuffer created at 0x55e609be3fe8
LLVM: llvmpipe_resource_bind_backing: pipe_screen 0x55e6048f93c0; pipe_resource 0x55e60e4ab1e0; llvmpipe_resource 0x55e60e4ab1e0; pipe_memory_allocation 0x14ce0f6a8000;
LVP: Binding lvp_buffer 0x55e609be55c0: buffer->bo: 0x55e60e4ab1e0; buffer->pmem: 0x14ce0f6a8000; memory-offset: 0;
gpgpusim: binding gpgpusim buffer 0xc19dbf00 (size 9796096) to vulkan buffer 0x14ce0f6a8000
LVP: gpgpusim buffer size 9796096 allocated at 0xc19dbf00
RTV: Bind buffer memory for vkBuffer 0x55e609be3fe8
RTV: Created buffer for 0x1195f00 size BLAS at 0x55e609be43d0
RTV: Creating bottom level acceleration structure 0...
RTV: Creating acceleration struction of size 0x700
lvp_CreateAccelerationStructureKHR
LVP: Accel structure (size 0x700) created from lvp_buffer (size 0x1195f00). 
LVP: Buffer 0x14ce14927000 + 0x0 = 0x14ce14927000 allocated to accel structure 0x55e609be7030
gpgpusim: set BLAS address for 0x1195f00 at 0x14ce14927000 to 0xc0846000
RTV: Building BLAS into 0x55e609be7030
LVP: Building acceleration structure
gpgpusim: set geometry
EMBREE: 12 triangles added; total: 12
EMBREE: New rtcBVH structure created at 0x55e610a0b100
EMBREE: Building 6 wide tree (max depth 32) using quality 1
EMBREE: Build BVH with root 0x55e610a0b500
Compressed Node: i	exp: (10, 10, 10)	origin: (0.000000, 0.000000, -555.000000)
Children:
	0x55e610a0b568: (0, 0, 0), (0, 139, 139)
	0x55e610a0b5e8: (0, 138, 0), (139, 139, 139)
	0x55e610a0b668: (0, 0, 0), (139, 0, 139)
	0x55e610a0b6e8: (138, 0, 0), (139, 139, 139)
	0x55e610a0b768: (0, 0, 0), (139, 139, 0)
	0x55e610a0b7e8: (53, 138, 56), (86, 139, 83)
EMBREE: Set dst_map 0x14ce14927000 = accel->address.bo 0x14ce14927000 + accel->address.offset 0x0 for accel 0x55e609be7030
EMBREE: Pack bvh 0x7fffe3b9e0b0 to dst_map 0x14ce14927000
EMBREE: Pack root 0x55e610a0b500 to root_map 0x14ce14927040
EMBREE: Release rtcBVH structure created at 0x55e610a0b100
RTV: Creating bottom level acceleration structure 1...
RTV: Creating acceleration struction of size 0x1195800
lvp_CreateAccelerationStructureKHR
LVP: Accel structure (size 0x1195800) created from lvp_buffer (size 0x1195f00). 
LVP: Buffer 0x14ce14927000 + 0x700 = 0x14ce14927700 allocated to accel structure 0x55e604b6eff0
gpgpusim: set BLAS address for 0x1195f00 at 0x14ce14927700 to 0xc0846700
RTV: Building BLAS into 0x55e604b6eff0
LVP: Building acceleration structure
gpgpusim: set geometry
EMBREE: 144046 triangles added; total: 144046
EMBREE: New rtcBVH structure created at 0x55e610a0b100
EMBREE: Building 6 wide tree (max depth 32) using quality 1
EMBREE: Build BVH with root 0x55e610a28640
Compressed Node: i	exp: (9, 9, 9)	origin: (35.685955, 9.200000, -425.910950)
Children:
	0x55e610a286a8: (45, 81, 22), (121, 118, 164)
	0x55e610b97600: (76, 0, 0), (136, 83, 85)
	0x55e610cff258: (40, 1, 110), (112, 83, 156)
	0x55e610e3efe0: (0, 116, 59), (107, 163, 158)
	0x55e610f72a50: (30, 0, 14), (78, 83, 85)
	0x55e61106cf30: (34, 0, 82), (134, 83, 112)
EMBREE: Set dst_map 0x14ce14927700 = accel->address.bo 0x14ce14927000 + accel->address.offset 0x700 for accel 0x55e604b6eff0
EMBREE: Pack bvh 0x7fffe3b9e0b0 to dst_map 0x14ce14927700
EMBREE: Pack root 0x55e610a28640 to root_map 0x14ce14927740
EMBREE: Release rtcBVH structure created at 0x55e610a0b100
RTV: Adding 2 BLAS instances
lvp_GetAccelerationStructureDeviceAddressKHR
LVP: Returning BLAS 0x55e609be7030 address 0x14ce14927000
RTV: Getting address of BLAS 0x55e609be7030 -> 0x14ce14927000
lvp_GetAccelerationStructureDeviceAddressKHR
LVP: Returning BLAS 0x55e604b6eff0 address 0x14ce14927700
RTV: Getting address of BLAS 0x55e604b6eff0 -> 0x14ce14927700
RTV: Creating device buffer TLAS Instances of size 128
LVP: vkBuffer size 128 created at 0x55e609bdbfe8
RTV: New vkBuffer created at 0x55e609bdbfe8
LLVM: llvmpipe_resource_bind_backing: pipe_screen 0x55e6048f93c0; pipe_resource 0x55e610a0b4b0; llvmpipe_resource 0x55e610a0b4b0; pipe_memory_allocation 0x55e610a12000;
LVP: Binding lvp_buffer 0x55e610a0af80: buffer->bo: 0x55e610a0b4b0; buffer->pmem: 0x55e610a12000; memory-offset: 0;
gpgpusim: binding gpgpusim buffer 0xc2333900 (size 128) to vulkan buffer 0x55e610a12000
LVP: gpgpusim buffer size 128 allocated at 0xc2333900
RTV: Bind buffer memory for vkBuffer 0x55e609bdbfe8
LVP: vkBuffer size 128 created at 0x55e609be1fe8
RTV: New vkBuffer created at 0x55e609be1fe8
LLVM: llvmpipe_resource_bind_backing: pipe_screen 0x55e6048f93c0; pipe_resource 0x55e610a0b740; llvmpipe_resource 0x55e610a0b740; pipe_memory_allocation 0x55e610a13000;
LVP: Binding lvp_buffer 0x55e610a0b6c0: buffer->bo: 0x55e610a0b740; buffer->pmem: 0x55e610a13000; memory-offset: 0;
gpgpusim: binding gpgpusim buffer 0xc2333a00 (size 128) to vulkan buffer 0x55e610a13000
LVP: gpgpusim buffer size 128 allocated at 0xc2333a00
RTV: Bind buffer memory for vkBuffer 0x55e609be1fe8
LVP: Finding mapped memory for mem 0x55e610a09f50: mem->pmem 0x55e610a13000 
LVP: Identified at 0x55e610a13000
LVP: Command Buffer:
	VK_CMD_COPY_BUFFER2
lvp_GetAccelerationStructureBuildSizesKHR
LVP: Size of BVH structure is 0x240
RTV: Rounding size of BVH structure up to 0x300
RTV: Total accel structure size = 0x300 + ... = 0x300
LVP: vkBuffer size 768 created at 0x55e610a0a198
RTV: New vkBuffer created at 0x55e610a0a198
LLVM: llvmpipe_resource_bind_backing: pipe_screen 0x55e6048f93c0; pipe_resource 0x55e610a0b740; llvmpipe_resource 0x55e610a0b740; pipe_memory_allocation 0x55e610a14000;
LVP: Binding lvp_buffer 0x55e610a09f50: buffer->bo: 0x55e610a0b740; buffer->pmem: 0x55e610a14000; memory-offset: 0;
gpgpusim: binding gpgpusim buffer 0xc2333b00 (size 768) to vulkan buffer 0x55e610a14000
LVP: gpgpusim buffer size 768 allocated at 0xc2333b00
RTV: Bind buffer memory for vkBuffer 0x55e610a0a198
LVP: vkBuffer size 256 created at 0x55e610a11ed8
RTV: New vkBuffer created at 0x55e610a11ed8
LLVM: llvmpipe_resource_bind_backing: pipe_screen 0x55e6048f93c0; pipe_resource 0x55e610a0fb80; llvmpipe_resource 0x55e610a0fb80; pipe_memory_allocation 0x55e610a1e000;
LVP: Binding lvp_buffer 0x55e610a0a760: buffer->bo: 0x55e610a0fb80; buffer->pmem: 0x55e610a1e000; memory-offset: 0;
gpgpusim: binding gpgpusim buffer 0xc2333e00 (size 256) to vulkan buffer 0x55e610a1e000
LVP: gpgpusim buffer size 256 allocated at 0xc2333e00
RTV: Bind buffer memory for vkBuffer 0x55e610a11ed8
RTV: Creating top level acceleration structure...
RTV: Creating acceleration struction of size 0x300
lvp_CreateAccelerationStructureKHR
LVP: Accel structure (size 0x300) created from lvp_buffer (size 0x300). 
LVP: Buffer 0x55e610a14000 + 0x0 = 0x55e610a14000 allocated to accel structure 0x55e604b6eea0
gpgpusim: set TLAS address 0x55e610a14000 to 0xc2333b00
LVP: Building acceleration structure
gpgpusim: set geometry
EMBREE: Get accel instance -> device 0x7fffe3b9dd50
EMBREE: Add AABB geometry: geomID: 0, primID 0, box (0.000, 0.000, -555.000), (556.000, 556.000, 1.000)
EMBREE: Get accel instance -> device 0x7fffe3b9dd50
EMBREE: Add AABB geometry: geomID: 0, primID 1, box (35.686, 9.200, -425.911), (307.686, 335.200, -97.911)
EMBREE: New rtcBVH structure created at 0x55e610a0b100
EMBREE: Building 6 wide tree (max depth 32) using quality 1
EMBREE: Build BVH with root 0x55e610a13bc0
Compressed Node: i	exp: (10, 10, 10)	origin: (0.000000, 0.000000, -555.000000)
Children:
	0x55e610a13c28: (8, 2, 32), (77, 84, 115)
	0x55e610a13c34: (0, 0, 0), (139, 139, 139)
	(nil): (0, 0, 0), (0, 0, 0)
	(nil): (0, 0, 0), (0, 0, 0)
	(nil): (0, 0, 0), (0, 0, 0)
	(nil): (0, 0, 0), (0, 0, 0)
EMBREE: Set dst_map 0x55e610a14000 = accel->address.bo 0x55e610a14000 + accel->address.offset 0x0 for accel 0x55e604b6eea0
EMBREE: Pack bvh 0x7fffe3b9e080 to dst_map 0x55e610a14000
EMBREE: Get accel instance -> device 0x7fffe3b9cb70
EMBREE: Get accel instance -> device 0x7fffe3b9cb70
EMBREE: Pack root 0x55e610a13bc0 to root_map 0x55e610a14040
gpgpusim: set AS
EMBREE: Release rtcBVH structure created at 0x55e610a0b100
LVP: Command Buffer:
	VK_CMD_PIPELINE_BARRIER2
- built acceleration structures in 1.41148s
LVP: Image created at 0x7fffe3b9e258
RTV: Creating image at 0x55e610a13090
LVP: Creating image_view for image 0x55e610a13090
RTV: Creating image view at 0x55e610a0e210
LVP: Image created at 0x55e610a106b8
RTV: Creating image at 0x55e610a13090
LLVM: llvmpipe_resource_bind_backing: pipe_screen 0x55e6048f93c0; pipe_resource 0x55e610a28200; llvmpipe_resource 0x55e610a28200; pipe_memory_allocation 0x55e610a29000;
gpgpusim: binding gpgpusim buffer 0xc2333f00 (size 262144) to vulkan buffer 0x55e610a29000
LVP: Image 0x55e610a13090 bound to pmem 0x55e610a29000 using pointer 0xc2333f00
LVP: Creating image_view for image 0x55e610a13090
RTV: Creating image view at 0x55e610b5c010
LVP: Command Buffer:
	VK_CMD_PIPELINE_BARRIER2
LVP: vkBuffer size 320 created at 0x55e609d7d0a8
RTV: New vkBuffer created at 0x55e609d7d0a8
LLVM: llvmpipe_resource_bind_backing: pipe_screen 0x55e6048f93c0; pipe_resource 0x55e610b5c430; llvmpipe_resource 0x55e610b5c430; pipe_memory_allocation 0x55e610b5d000;
LVP: Binding lvp_buffer 0x55e609be55c0: buffer->bo: 0x55e610b5c430; buffer->pmem: 0x55e610b5d000; memory-offset: 0;
gpgpusim: binding gpgpusim buffer 0xc2373f00 (size 320) to vulkan buffer 0x55e610b5d000
LVP: gpgpusim buffer size 320 allocated at 0xc2373f00
RTV: Bind buffer memory for vkBuffer 0x55e609d7d0a8
RTV: Create descriptor pool...
LVP: Create descriptor pool...
RTV: Create descriptor set layout...
LVP: Create descriptor set layout...
LVP: Set Layout with 3 bindings...
DESCRIPTOR TYPE SET: 6
LVP: Set Layout: type VK_DESCRIPTOR_TYPE_UNIFORM_BUFFER; stage flag 0x  1
DESCRIPTOR TYPE SET: 7
LVP: Set Layout: type VK_DESCRIPTOR_TYPE_STORAGE_BUFFER; stage flag 0x 11
DESCRIPTOR TYPE SET: 1
LVP: Set Layout: type VK_DESCRIPTOR_TYPE_COMBINED_IMAGE_SAMPLER; stage flag 0x 10
RTV: Allocate descriptor sets...
LVP: Allocate descriptor sets...
LVP: Creating descriptor sets with 3 bindings at 0x55e6051f7f30...
RTV: Update descriptor sets...
LVP: Update descriptor sets...
DESC AT: 0x55e6051f7f88 with type 6
LVP: Setting lvp_buffer 0x55e609be55c0 for descriptor 0 (0). info.ubo: buffer 0x55e610b5c430 + offset 0 = 0x55e610b5c430; stored at 0x55e610b5d000 using pointer 0xc2373f00 with 320 bytes. 
LVP: gpgpusim buffer at 0xc2373f00
DESC AT: 0x55e6051f7fb8 with type 7
LVP: Setting lvp_buffer 0x55e609bd6a30 for descriptor 1 (0). info.ssbo: buffer 0x55e609bd7000 + offset 0 = 0x55e609bd7000; stored at 0x55e609bd8000 using pointer 0xc0844e00 with 160 bytes. 
LVP: gpgpusim buffer at 0xc0844e00
DESC AT: 0x55e6051f7fe8 with type 1
LVP: Setting descriptor 2 VK_DESCRIPTOR_TYPE_COMBINED_IMAGE_SAMPLER
LVP: Create pipeline layout...
LVP: Image created at 0x55e610a10748
RTV: Creating image at 0x55e610d2eef0
LLVM: llvmpipe_resource_bind_backing: pipe_screen 0x55e6048f93c0; pipe_resource 0x55e610b5dfe0; llvmpipe_resource 0x55e610b5dfe0; pipe_memory_allocation 0x55e610d53000;
gpgpusim: binding gpgpusim buffer 0xc2374100 (size 1048576) to vulkan buffer 0x55e610d53000
LVP: Image 0x55e610d2eef0 bound to pmem 0x55e610d53000 using pointer 0xc2374100
LVP: Creating image_view for image 0x55e610d2eef0
RTV: Creating image view at 0x55e610b67680
LVP: Image created at 0x55e6089a5fe8
RTV: Creating image at 0x55e610d2f3d0
LLVM: llvmpipe_resource_bind_backing: pipe_screen 0x55e6048f93c0; pipe_resource 0x55e6112506d0; llvmpipe_resource 0x55e6112506d0; pipe_memory_allocation 0x55e611251000;
gpgpusim: binding gpgpusim buffer 0xc2474100 (size 1048576) to vulkan buffer 0x55e611251000
LVP: Image 0x55e610d2f3d0 bound to pmem 0x55e611251000 using pointer 0xc2474100
LVP: Creating image_view for image 0x55e610d2f3d0
RTV: Creating image view at 0x55e610ba0260
RTV: Create descriptor pool...
LVP: Create descriptor pool...
RTV: Create descriptor set layout...
LVP: Create descriptor set layout...
LVP: Set Layout with 12 bindings...
DESCRIPTOR TYPE SET: 1000150000
LVP: Set Layout: type VK_DESCRIPTOR_TYPE_ACCELERATION_STRUCTURE_KHR; stage flag 0x100
DESCRIPTOR TYPE SET: 3
LVP: Set Layout: type VK_DESCRIPTOR_TYPE_STORAGE_IMAGE; stage flag 0x100
DESCRIPTOR TYPE SET: 3
LVP: Set Layout: type VK_DESCRIPTOR_TYPE_STORAGE_IMAGE; stage flag 0x100
DESCRIPTOR TYPE SET: 6
LVP: Set Layout: type VK_DESCRIPTOR_TYPE_UNIFORM_BUFFER; stage flag 0x900
DESCRIPTOR TYPE SET: 7
LVP: Set Layout: type VK_DESCRIPTOR_TYPE_STORAGE_BUFFER; stage flag 0x600
DESCRIPTOR TYPE SET: 7
LVP: Set Layout: type VK_DESCRIPTOR_TYPE_STORAGE_BUFFER; stage flag 0x600
DESCRIPTOR TYPE SET: 7
LVP: Set Layout: type VK_DESCRIPTOR_TYPE_STORAGE_BUFFER; stage flag 0x600
DESCRIPTOR TYPE SET: 7
LVP: Set Layout: type VK_DESCRIPTOR_TYPE_STORAGE_BUFFER; stage flag 0x600
DESCRIPTOR TYPE SET: 1
LVP: Set Layout: type VK_DESCRIPTOR_TYPE_COMBINED_IMAGE_SAMPLER; stage flag 0x600
DESCRIPTOR TYPE SET: 7
LVP: Set Layout: type VK_DESCRIPTOR_TYPE_STORAGE_BUFFER; stage flag 0x1400
DESCRIPTOR TYPE SET: 7
LVP: Set Layout: type VK_DESCRIPTOR_TYPE_STORAGE_BUFFER; stage flag 0x1400
DESCRIPTOR TYPE SET: 7
LVP: Set Layout: type VK_DESCRIPTOR_TYPE_STORAGE_BUFFER; stage flag 0x1400
RTV: Allocate descriptor sets...
LVP: Allocate descriptor sets...
LVP: Creating descriptor sets with 12 bindings at 0x55e610ba0470...
RTV: Update descriptor sets...
LVP: Update descriptor sets...
DESC AT: 0x55e610ba04c8 with type 1000150000
LVP: Setting lvp_acceleration_structure 0x55e604b6eea0 for descriptor 0 (0). info.ubo: address 0x55e610a14000 + offset 0 = 0x55e610a14000 
DESC AT: 0x55e610ba04f8 with type 3
LVP: Setting lvp_image_view 0x55e610b67680 for descriptor 1 (0). Type: VK_FORMAT_R32G32B32A32_SFLOAT; Tiling: VK_IMAGE_TILING_OPTIMAL
LVP: Image 0x55e610d2eef0 stored at 0x55e610d53000 using pointer 0xc2374100
DESC AT: 0x55e610ba0528 with type 3
LVP: Setting lvp_image_view 0x55e610ba0260 for descriptor 2 (0). Type: VK_FORMAT_R32G32B32A32_SFLOAT; Tiling: VK_IMAGE_TILING_OPTIMAL
LVP: Image 0x55e610d2f3d0 stored at 0x55e611251000 using pointer 0xc2474100
DESC AT: 0x55e610ba0558 with type 6
LVP: Setting lvp_buffer 0x55e609be55c0 for descriptor 3 (0). info.ubo: buffer 0x55e610b5c430 + offset 0 = 0x55e610b5c430; stored at 0x55e610b5d000 using pointer 0xc2373f00 with 320 bytes. 
LVP: gpgpusim buffer at 0xc2373f00
DESC AT: 0x55e610ba0588 with type 7
LVP: Setting lvp_buffer 0x55e604ad5010 for descriptor 4 (0). info.ssbo: buffer 0x55e604b6cb30 + offset 0 = 0x55e604b6cb30; stored at 0x55e605650000 using pointer 0xc0000000 with 2606472 bytes. 
LVP: gpgpusim buffer at 0xc0000000
DESC AT: 0x55e610ba05b8 with type 7
LVP: Setting lvp_buffer 0x55e6089a4dc0 for descriptor 5 (0). info.ssbo: buffer 0x55e6089a5000 + offset 0 = 0x55e6089a5000; stored at 0x55e6089a6000 using pointer 0xc04f8c00 with 1728696 bytes. 
LVP: gpgpusim buffer at 0xc04f8c00
DESC AT: 0x55e610ba05e8 with type 7
LVP: Setting lvp_buffer 0x55e609bd6a30 for descriptor 6 (0). info.ssbo: buffer 0x55e609bd7000 + offset 0 = 0x55e609bd7000; stored at 0x55e609bd8000 using pointer 0xc0844e00 with 160 bytes. 
LVP: gpgpusim buffer at 0xc0844e00
DESC AT: 0x55e610ba0618 with type 7
LVP: Setting lvp_buffer 0x55e609bd7640 for descriptor 7 (0). info.ssbo: buffer 0x55e609bd7bc0 + offset 0 = 0x55e609bd7bc0; stored at 0x55e609bda000 using pointer 0xc0845000 with 16 bytes. 
LVP: gpgpusim buffer at 0xc0845000
DESC AT: 0x55e610ba0648 with type 1
LVP: Setting descriptor 8 VK_DESCRIPTOR_TYPE_COMBINED_IMAGE_SAMPLER
DESC AT: 0x55e610ba0678 with type 7
LVP: Setting lvp_buffer 0x55e609bd9a60 for descriptor 9 (0). info.ssbo: buffer 0x55e609bda420 + offset 0 = 0x55e609bda420; stored at 0x55e609bde000 using pointer 0xc0845400 with 32 bytes. 
LVP: gpgpusim buffer at 0xc0845400
DESC AT: 0x55e610ba06a8 with type 7
LVP: Setting lvp_buffer 0x55e609bdae10 for descriptor 10 (0). info.ssbo: buffer 0x55e609bd84f0 + offset 0 = 0x55e609bd84f0; stored at 0x55e609be2000 using pointer 0xc0845800 with 32 bytes. 
LVP: gpgpusim buffer at 0xc0845800
DESC AT: 0x55e610ba06d8 with type 7
LVP: Setting lvp_buffer 0x55e609bd8d60 for descriptor 11 (0). info.ssbo: buffer 0x55e609bd8b50 + offset 0 = 0x55e609bd8b50; stored at 0x55e609be6000 using pointer 0xc0845c00 with 32 bytes. 
LVP: gpgpusim buffer at 0xc0845c00
LVP: Create pipeline layout...
RTV: Using primary + shadow shader with default light sources.
RTV: Anyhit shader: -1
RTV: CTranslating /cluster/home/jorgfi/vulkan-sim-root/vulkan-sim/../mesa-vulkan-sim/gpgpusimShaders/MESA_SHADER_RAYGEN_0.ptx
Translating /cluster/home/jorgfi/vulkan-sim-root/vulkan-sim/../mesa-vulkan-sim/gpgpusimShaders/MESA_SHADER_CLOSEST_HIT_3.ptx
Translating /cluster/home/jorgfi/vulkan-sim-root/vulkan-sim/../mesa-vulkan-sim/gpgpusimShaders/MESA_SHADER_INTERSECTION_7.ptx
Translating /cluster/home/jorgfi/vulkan-sim-root/vulkan-sim/../mesa-vulkan-sim/gpgpusimShaders/MESA_SHADER_INTERSECTION_8.ptx
Translating /cluster/home/jorgfi/vulkan-sim-root/vulkan-sim/../mesa-vulkan-sim/gpgpusimShaders/MESA_SHADER_CLOSEST_HIT_5.ptx
Translating /cluster/home/jorgfi/vulkan-sim-root/vulkan-sim/../mesa-vulkan-sim/gpgpusimShaders/MESA_SHADER_CLOSEST_HIT_4.ptx
Translating /cluster/home/jorgfi/vulkan-sim-root/vulkan-sim/../mesa-vulkan-sim/gpgpusimShaders/MESA_SHADER_INTERSECTION_6.ptx
Translating /cluster/home/jorgfi/vulkan-sim-root/vulkan-sim/../mesa-vulkan-sim/gpgpusimShaders/MESA_SHADER_CLOSEST_HIT_2.ptx
Translating /cluster/home/jorgfi/vulkan-sim-root/vulkan-sim/../mesa-vulkan-sim/gpgpusimShaders/MESA_SHADER_MISS_1.ptx
Translating /cluster/home/jorgfi/vulkan-sim-root/vulkan-sim/../mesa-vulkan-sim/gpgpusimShaders/MESA_SHADER_INTERSECTION_9.ptx
reating ray tracing pipeline...
LVP: Creating ray tracing pipeline...
LVP: Compiling ray tracing pipeline...
LVP: Compiling shader stage 0
LVP: Translating shader 0 (type 8)
GPGPU-SIM VULKAN: Translating NIR MESA_SHADER_RAYGEN to PTX
LVP: Compiling shader stage 1
LVP: Translating shader 1 (type 11)
GPGPU-SIM VULKAN: Translating NIR MESA_SHADER_MISS to PTX
LVP: Compiling shader stage 2
LVP: Translating shader 2 (type 10)
GPGPU-SIM VULKAN: Translating NIR MESA_SHADER_CLOSEST_HIT to PTX
LVP: Compiling shader stage 3
LVP: Translating shader 3 (type 10)
GPGPU-SIM VULKAN: Translating NIR MESA_SHADER_CLOSEST_HIT to PTX
LVP: Compiling shader stage 4
LVP: Translating shader 4 (type 10)
GPGPU-SIM VULKAN: Translating NIR MESA_SHADER_CLOSEST_HIT to PTX
LVP: Compiling shader stage 5
LVP: Translating shader 5 (type 10)
GPGPU-SIM VULKAN: Translating NIR MESA_SHADER_CLOSEST_HIT to PTX
LVP: Compiling shader stage 6
LVP: Translating shader 6 (type 12)
GPGPU-SIM VULKAN: Translating NIR MESA_SHADER_INTERSECTION to PTX
LVP: Compiling shader stage 7
LVP: Translating shader 7 (type 12)
GPGPU-SIM VULKAN: Translating NIR MESA_SHADER_INTERSECTION to PTX
LVP: Compiling shader stage 8
LVP: Translating shader 8 (type 12)
GPGPU-SIM VULKAN: Translating NIR MESA_SHADER_INTERSECTION to PTX
LVP: Compiling shader stage 9
LVP: Translating shader 9 (type 12)
GPGPU-SIM VULKAN: Translating NIR MESA_SHADER_INTERSECTION to PTX
LVP: run_rt_translation_passes
LVP: Registering shader stage 0 with GPGPU-Sim
gpgpusim: register shaders
gpgpusim: invoking gpgpusim
GPGPU-Sim PTX: instruction assembly for function 'MESA_SHADER_RAYGEN_func0_main'...   done.
GPGPU-Sim PTX: finished parsing EMBEDDED .ptx file /cluster/home/jorgfi/vulkan-sim-root/vulkan-sim/../mesa-vulkan-sim/gpgpusimShaders/MESA_SHADER_RAYGEN_0.ptx
GPGPUSIM: Generating PTXINFO for/cluster/home/jorgfi/vulkan-sim-root/vulkan-sim/../mesa-vulkan-sim/gpgpusimShaders/MESA_SHADER_RAYGEN_0.ptxinfo
ptxas info    : 0 bytes gmem
ptxas info    : Compiling entry function 'MESA_SHADER_RAYGEN_func0_main' for 'sm_52'
ptxas info    : Function properties for MESA_SHADER_RAYGEN_func0_main
    0 bytes stack frame, 0 bytes spill stores, 0 bytes spill loads
ptxas info    : Used 14 registers, 320 bytes cmem[0], 16 bytes cmem[2]
Parsing ptxinfo from file: /cluster/home/jorgfi/vulkan-sim-root/vulkan-sim/../mesa-vulkan-sim/gpgpusimShaders/MESA_SHADER_RAYGEN_0.ptxinfo
GPGPU-Sim PTX: Kernel 'MESA_SHADER_RAYGEN_func0_main' : regs=14, lmem=0, smem=0, cmem=336
LVP: Registering shader stage 1 with GPGPU-Sim
gpgpusim: register shaders
gpgpusim: invoking gpgpusim
GPGPU-Sim PTX: instruction assembly for function 'MESA_SHADER_MISS_func1_main'...   done.
GPGPU-Sim PTX: finished parsing EMBEDDED .ptx file /cluster/home/jorgfi/vulkan-sim-root/vulkan-sim/../mesa-vulkan-sim/gpgpusimShaders/MESA_SHADER_MISS_1.ptx
GPGPUSIM: Generating PTXINFO for/cluster/home/jorgfi/vulkan-sim-root/vulkan-sim/../mesa-vulkan-sim/gpgpusimShaders/MESA_SHADER_MISS_1.ptxinfo
ptxas info    : 0 bytes gmem
ptxas info    : Compiling entry function 'MESA_SHADER_MISS_func1_main' for 'sm_52'
ptxas info    : Function properties for MESA_SHADER_MISS_func1_main
    0 bytes stack frame, 0 bytes spill stores, 0 bytes spill loads
ptxas info    : Used 8 registers, 320 bytes cmem[0], 8 bytes cmem[2]
Parsing ptxinfo from file: /cluster/home/jorgfi/vulkan-sim-root/vulkan-sim/../mesa-vulkan-sim/gpgpusimShaders/MESA_SHADER_MISS_1.ptxinfo
GPGPU-Sim PTX: Kernel 'MESA_SHADER_MISS_func1_main' : regs=8, lmem=0, smem=0, cmem=328
LVP: Registering shader stage 2 with GPGPU-Sim
gpgpusim: register shaders
gpgpusim: invoking gpgpusim
GPGPU-Sim PTX: instruction assembly for function 'MESA_SHADER_CLOSEST_HIT_func2_main'...   done.
GPGPU-Sim PTX: finished parsing EMBEDDED .ptx file /cluster/home/jorgfi/vulkan-sim-root/vulkan-sim/../mesa-vulkan-sim/gpgpusimShaders/MESA_SHADER_CLOSEST_HIT_2.ptx
GPGPUSIM: Generating PTXINFO for/cluster/home/jorgfi/vulkan-sim-root/vulkan-sim/../mesa-vulkan-sim/gpgpusimShaders/MESA_SHADER_CLOSEST_HIT_2.ptxinfo
ptxas info    : 0 bytes gmem
ptxas info    : Compiling entry function 'MESA_SHADER_CLOSEST_HIT_func2_main' for 'sm_52'
ptxas info    : Function properties for MESA_SHADER_CLOSEST_HIT_func2_main
    0 bytes stack frame, 0 bytes spill stores, 0 bytes spill loads
ptxas info    : Used 32 registers, 320 bytes cmem[0], 8 bytes cmem[2]
Parsing ptxinfo from file: /cluster/home/jorgfi/vulkan-sim-root/vulkan-sim/../mesa-vulkan-sim/gpgpusimShaders/MESA_SHADER_CLOSEST_HIT_2.ptxinfo
GPGPU-Sim PTX: Kernel 'MESA_SHADER_CLOSEST_HIT_func2_main' : regs=32, lmem=0, smem=0, cmem=328
LVP: Registering shader stage 3 with GPGPU-Sim
gpgpusim: register shaders
gpgpusim: invoking gpgpusim
GPGPU-Sim PTX: instruction assembly for function 'MESA_SHADER_CLOSEST_HIT_func3_main'...   done.
GPGPU-Sim PTX: finished parsing EMBEDDED .ptx file /cluster/home/jorgfi/vulkan-sim-root/vulkan-sim/../mesa-vulkan-sim/gpgpusimShaders/MESA_SHADER_CLOSEST_HIT_3.ptx
GPGPUSIM: Generating PTXINFO for/cluster/home/jorgfi/vulkan-sim-root/vulkan-sim/../mesa-vulkan-sim/gpgpusimShaders/MESA_SHADER_CLOSEST_HIT_3.ptxinfo
ptxas info    : 0 bytes gmem
ptxas info    : Compiling entry function 'MESA_SHADER_CLOSEST_HIT_func3_main' for 'sm_52'
ptxas info    : Function properties for MESA_SHADER_CLOSEST_HIT_func3_main
    0 bytes stack frame, 0 bytes spill stores, 0 bytes spill loads
ptxas info    : Used 27 registers, 320 bytes cmem[0], 8 bytes cmem[2]
Parsing ptxinfo from file: /cluster/home/jorgfi/vulkan-sim-root/vulkan-sim/../mesa-vulkan-sim/gpgpusimShaders/MESA_SHADER_CLOSEST_HIT_3.ptxinfo
GPGPU-Sim PTX: Kernel 'MESA_SHADER_CLOSEST_HIT_func3_main' : regs=27, lmem=0, smem=0, cmem=328
LVP: Registering shader stage 4 with GPGPU-Sim
gpgpusim: register shaders
gpgpusim: invoking gpgpusim
GPGPU-Sim PTX: instruction assembly for function 'MESA_SHADER_CLOSEST_HIT_func4_main'...   done.
GPGPU-Sim PTX: finished parsing EMBEDDED .ptx file /cluster/home/jorgfi/vulkan-sim-root/vulkan-sim/../mesa-vulkan-sim/gpgpusimShaders/MESA_SHADER_CLOSEST_HIT_4.ptx
GPGPUSIM: Generating PTXINFO for/cluster/home/jorgfi/vulkan-sim-root/vulkan-sim/../mesa-vulkan-sim/gpgpusimShaders/MESA_SHADER_CLOSEST_HIT_4.ptxinfo
ptxas info    : 0 bytes gmem
ptxas info    : Compiling entry function 'MESA_SHADER_CLOSEST_HIT_func4_main' for 'sm_52'
ptxas info    : Function properties for MESA_SHADER_CLOSEST_HIT_func4_main
    0 bytes stack frame, 0 bytes spill stores, 0 bytes spill loads
ptxas info    : Used 28 registers, 320 bytes cmem[0], 8 bytes cmem[2]
Parsing ptxinfo from file: /cluster/home/jorgfi/vulkan-sim-root/vulkan-sim/../mesa-vulkan-sim/gpgpusimShaders/MESA_SHADER_CLOSEST_HIT_4.ptxinfo
GPGPU-Sim PTX: Kernel 'MESA_SHADER_CLOSEST_HIT_func4_main' : regs=28, lmem=0, smem=0, cmem=328
LVP: Registering shader stage 5 with GPGPU-Sim
gpgpusim: register shaders
gpgpusim: invoking gpgpusim
GPGPU-Sim PTX: instruction assembly for function 'MESA_SHADER_CLOSEST_HIT_func5_main'...   done.
GPGPU-Sim PTX: finished parsing EMBEDDED .ptx file /cluster/home/jorgfi/vulkan-sim-root/vulkan-sim/../mesa-vulkan-sim/gpgpusimShaders/MESA_SHADER_CLOSEST_HIT_5.ptx
GPGPUSIM: Generating PTXINFO for/cluster/home/jorgfi/vulkan-sim-root/vulkan-sim/../mesa-vulkan-sim/gpgpusimShaders/MESA_SHADER_CLOSEST_HIT_5.ptxinfo
ptxas info    : 0 bytes gmem
ptxas info    : Compiling entry function 'MESA_SHADER_CLOSEST_HIT_func5_main' for 'sm_52'
ptxas info    : Function properties for MESA_SHADER_CLOSEST_HIT_func5_main
    0 bytes stack frame, 0 bytes spill stores, 0 bytes spill loads
ptxas info    : Used 28 registers, 320 bytes cmem[0], 8 bytes cmem[2]
Parsing ptxinfo from file: /cluster/home/jorgfi/vulkan-sim-root/vulkan-sim/../mesa-vulkan-sim/gpgpusimShaders/MESA_SHADER_CLOSEST_HIT_5.ptxinfo
GPGPU-Sim PTX: Kernel 'MESA_SHADER_CLOSEST_HIT_func5_main' : regs=28, lmem=0, smem=0, cmem=328
LVP: Registering shader stage 6 with GPGPU-Sim
gpgpusim: register shaders
gpgpusim: invoking gpgpusim
GPGPU-Sim PTX: instruction assembly for function 'MESA_SHADER_INTERSECTION_func6_main'...   done.
GPGPU-Sim PTX: finished parsing EMBEDDED .ptx file /cluster/home/jorgfi/vulkan-sim-root/vulkan-sim/../mesa-vulkan-sim/gpgpusimShaders/MESA_SHADER_INTERSECTION_6.ptx
GPGPUSIM: Generating PTXINFO for/cluster/home/jorgfi/vulkan-sim-root/vulkan-sim/../mesa-vulkan-sim/gpgpusimShaders/MESA_SHADER_INTERSECTION_6.ptxinfo
ptxas info    : 0 bytes gmem
ptxas info    : Compiling entry function 'MESA_SHADER_INTERSECTION_func6_main' for 'sm_52'
ptxas info    : Function properties for MESA_SHADER_INTERSECTION_func6_main
    0 bytes stack frame, 0 bytes spill stores, 0 bytes spill loads
ptxas info    : Used 14 registers, 320 bytes cmem[0]
Parsing ptxinfo from file: /cluster/home/jorgfi/vulkan-sim-root/vulkan-sim/../mesa-vulkan-sim/gpgpusimShaders/MESA_SHADER_INTERSECTION_6.ptxinfo
GPGPU-Sim PTX: Kernel 'MESA_SHADER_INTERSECTION_func6_main' : regs=14, lmem=0, smem=0, cmem=320
LVP: Registering shader stage 7 with GPGPU-Sim
gpgpusim: register shaders
gpgpusim: invoking gpgpusim
GPGPU-Sim PTX: instruction assembly for function 'MESA_SHADER_INTERSECTION_func7_main'...   done.
GPGPU-Sim PTX: finished parsing EMBEDDED .ptx file /cluster/home/jorgfi/vulkan-sim-root/vulkan-sim/../mesa-vulkan-sim/gpgpusimShaders/MESA_SHADER_INTERSECTION_7.ptx
GPGPUSIM: Generating PTXINFO for/cluster/home/jorgfi/vulkan-sim-root/vulkan-sim/../mesa-vulkan-sim/gpgpusimShaders/MESA_SHADER_INTERSECTION_7.ptxinfo
ptxas info    : 0 bytes gmem
ptxas info    : Compiling entry function 'MESA_SHADER_INTERSECTION_func7_main' for 'sm_52'
ptxas info    : Function properties for MESA_SHADER_INTERSECTION_func7_main
    0 bytes stack frame, 0 bytes spill stores, 0 bytes spill loads
ptxas info    : Used 2 registers, 320 bytes cmem[0]
Parsing ptxinfo from file: /cluster/home/jorgfi/vulkan-sim-root/vulkan-sim/../mesa-vulkan-sim/gpgpusimShaders/MESA_SHADER_INTERSECTION_7.ptxinfo
GPGPU-Sim PTX: Kernel 'MESA_SHADER_INTERSECTION_func7_main' : regs=2, lmem=0, smem=0, cmem=320
LVP: Registering shader stage 8 with GPGPU-Sim
gpgpusim: register shaders
gpgpusim: invoking gpgpusim
GPGPU-Sim PTX: instruction assembly for function 'MESA_SHADER_INTERSECTION_func8_main'...   done.
GPGPU-Sim PTX: finished parsing EMBEDDED .ptx file /cluster/home/jorgfi/vulkan-sim-root/vulkan-sim/../mesa-vulkan-sim/gpgpusimShaders/MESA_SHADER_INTERSECTION_8.ptx
GPGPUSIM: Generating PTXINFO for/cluster/home/jorgfi/vulkan-sim-root/vulkan-sim/../mesa-vulkan-sim/gpgpusimShaders/MESA_SHADER_INTERSECTION_8.ptxinfo
ptxas info    : 0 bytes gmem
ptxas info    : Compiling entry function 'MESA_SHADER_INTERSECTION_func8_main' for 'sm_52'
ptxas info    : Function properties for MESA_SHADER_INTERSECTION_func8_main
    0 bytes stack frame, 0 bytes spill stores, 0 bytes spill loads
ptxas info    : Used 16 registers, 320 bytes cmem[0]
Parsing ptxinfo from file: /cluster/home/jorgfi/vulkan-sim-root/vulkan-sim/../mesa-vulkan-sim/gpgpusimShaders/MESA_SHADER_INTERSECTION_8.ptxinfo
GPGPU-Sim PTX: Kernel 'MESA_SHADER_INTERSECTION_func8_main' : regs=16, lmem=0, smem=0, cmem=320
LVP: Registering shader stage 9 with GPGPU-Sim
gpgpusim: register shaders
gpgpusim: invoking gpgpusim
GPGPU-Sim PTX: instruction assembly for function 'MESA_SHADER_INTERSECTION_func9_main'...   done.
GPGPU-Sim PTX: finished parsing EMBEDDED .ptx file /cluster/home/jorgfi/vulkan-sim-root/vulkan-sim/../mesa-vulkan-sim/gpgpusimShaders/MESA_SHADER_INTERSECTION_9.ptx
GPGPUSIM: Generating PTXINFO for/cluster/home/jorgfi/vulkan-sim-root/vulkan-sim/../mesa-vulkan-sim/gpgpusimShaders/MESA_SHADER_INTERSECTION_9.ptxinfo
ptxas info    : 0 bytes gmem
ptxas info    : Compiling entry function 'MESA_SHADER_INTERSECTION_func9_main' for 'sm_52'
ptxas info    : Function properties for MESA_SHADER_INTERSECTION_func9_main
    0 bytes stack frame, 0 bytes spill stores, 0 bytes spill loads
ptxas info    : Used 14 registers, 320 bytes cmem[0]
Parsing ptxinfo from file: /cluster/home/jorgfi/vulkan-sim-root/vulkan-sim/../mesa-vulkan-sim/gpgpusimShaders/MESA_SHADER_INTERSECTION_9.ptxinfo
GPGPU-Sim PTX: Kernel 'MESA_SHADER_INTERSECTION_func9_main' : regs=14, lmem=0, smem=0, cmem=320
LVP: Adding group handle for general group: 
	general_index 0
LVP: Adding group handle for general group: 
	general_index 1
LVP: Adding group handle for triangle hit group: 
	closest_hit_index 2
LVP: Adding group handle for procedural hit group: 
	closest_hit_index 3
	intersection_index 6
LVP: Adding group handle for procedural hit group: 
	closest_hit_index 4
	intersection_index 7
LVP: Adding group handle for procedural hit group: 
	closest_hit_index 5
	intersection_index 8
gpgpusim: set pipeline
LVP: vkBuffer size 192 created at 0x55e612efba28
RTV: New vkBuffer created at 0x55e612efba28
LLVM: llvmpipe_resource_bind_backing: pipe_screen 0x55e6048f93c0; pipe_resource 0x55e612f13bb0; llvmpipe_resource 0x55e612f13bb0; pipe_memory_allocation 0x55e612f14000;
LVP: Binding lvp_buffer 0x55e611f946e0: buffer->bo: 0x55e612f13bb0; buffer->pmem: 0x55e612f14000; memory-offset: 0;
gpgpusim: binding gpgpusim buffer 0xc2574100 (size 192) to vulkan buffer 0x55e612f14000
LVP: gpgpusim buffer size 192 allocated at 0xc2574100
RTV: Bind buffer memory for vkBuffer 0x55e612efba28
RTV: Get ray tracing shader group handles... group count: 6; handle size: 32
LVP: Get ray tracing shader group handles...
LVP: Copying handle 0 to 0x55e610bb1de0
LVP: Copying handle 1 to 0x55e610bb1e00
LVP: Copying handle 2 to 0x55e610bb1e20
LVP: Copying handle 3 to 0x55e610bb1e40
LVP: Copying handle 4 to 0x55e610bb1e60
LVP: Copying handle 5 to 0x55e610bb1e80
LVP: Finding mapped memory for mem 0x55e612f13dc0: mem->pmem 0x55e612f14000 
LVP: Identified at 0x55e612f14000
RTV: CopyShaderData (size 32) from 0x55e610bb1de0 to 0x55e612f14000 for raygen shader
RTV: CopyShaderData (size 32) from 0x55e610bb1de0 to 0x55e612f14020 for miss shader
RTV: CopyShaderData (size 32) from 0x55e610bb1de0 to 0x55e612f14040 for hit shader

Swap Chain: 
- image count: 1
- present mode: 3

RTV: Bind ray tracing pipeline...
RTV: Bind descriptor sets...
RTV: Trace ray...
RTV: (256 x 256 x 1) SBT raygen 0x7fffe3b9e200, miss 0x7fffe3b9e220, hit 0x7fffe3b9e240, callable 0x7fffe3b9e260
RTV: Copy image...
LVP: Finding mapped memory for mem 0x55e610a0fdb0: mem->pmem 0x55e610b5d000 
LVP: Identified at 0x55e610b5d000
RTV: Setting uniform buffer value at 0x55e610b5d000 using memcpy
LVP: Command Buffer:
	VK_CMD_PIPELINE_BARRIER2
	VK_CMD_PIPELINE_BARRIER2
	VK_CMD_BIND_PIPELINE
	VK_CMD_BIND_DESCRIPTOR_SETS
	VK_CMD_TRACE_RAYS_KHR
	VK_CMD_PIPELINE_BARRIER2
	VK_CMD_PIPELINE_BARRIER2
	VK_CMD_COPY_IMAGE2
	VK_CMD_PIPELINE_BARRIER2
LVP: Bind pipeline...
LVP: Bind ray tracing pipeline...
LVP: Bind descriptor sets...
LVP: Bind ray tracing descriptor sets...
LVP: Binding... 
Bind raygen... 
LVP: Handling descriptor type VK_DESCRIPTOR_TYPE_ACCELERATION_STRUCTURE_KHR...
LVP: Handling descriptor type VK_DESCRIPTOR_TYPE_STORAGE_IMAGE...
LVP: Handling descriptor type VK_DESCRIPTOR_TYPE_STORAGE_IMAGE...
LVP: Handling descriptor type VK_DESCRIPTOR_TYPE_UNIFORM_BUFFER...
LVP: Handling descriptor type VK_DESCRIPTOR_TYPE_STORAGE_BUFFER...
LVP: Handling descriptor type VK_DESCRIPTOR_TYPE_STORAGE_BUFFER...
LVP: Handling descriptor type VK_DESCRIPTOR_TYPE_STORAGE_BUFFER...
LVP: Handling descriptor type VK_DESCRIPTOR_TYPE_STORAGE_BUFFER...
LVP: Handling descriptor type VK_DESCRIPTOR_TYPE_COMBINED_IMAGE_SAMPLER...
LVP: Handling descriptor type VK_DESCRIPTOR_TYPE_STORAGE_BUFFER...
LVP: Handling descriptor type VK_DESCRIPTOR_TYPE_STORAGE_BUFFER...
LVP: Handling descriptor type VK_DESCRIPTOR_TYPE_STORAGE_BUFFER...
Bind any hit... 
LVP: Handling descriptor type VK_DESCRIPTOR_TYPE_ACCELERATION_STRUCTURE_KHR...
LVP: Handling descriptor type VK_DESCRIPTOR_TYPE_STORAGE_IMAGE...
LVP: Handling descriptor type VK_DESCRIPTOR_TYPE_STORAGE_IMAGE...
LVP: Handling descriptor type VK_DESCRIPTOR_TYPE_UNIFORM_BUFFER...
[...]
bb_31	:  PC=0x4008 (/cluster/home/jorgfi/vulkan-sim-root/vulkan-sim/../mesa-vulkan-sim/gpgpusimShaders/MESA_SHADER_CLOSEST_HIT_2.ptx:2337) ld.global.f32 %ssa_415_0, [%ssa_415_address + 0];
bb_31	:  PC=0x4010 (/cluster/home/jorgfi/vulkan-sim-root/vulkan-sim/../mesa-vulkan-sim/gpgpusimShaders/MESA_SHADER_CLOSEST_HIT_2.ptx:2338) ld.global.f32 %ssa_415_1, [%ssa_415_address + 4];
bb_31	:  PC=0x4018 (/cluster/home/jorgfi/vulkan-sim-root/vulkan-sim/../mesa-vulkan-sim/gpgpusimShaders/MESA_SHADER_CLOSEST_HIT_2.ptx:2339) ld.global.f32 %ssa_415_2, [%ssa_415_address + 8];
bb_31	:  PC=0x4020 (/cluster/home/jorgfi/vulkan-sim-root/vulkan-sim/../mesa-vulkan-sim/gpgpusimShaders/MESA_SHADER_CLOSEST_HIT_2.ptx:2340) ld.global.f32 %ssa_415_3, [%ssa_415_address + 12];
bb_31	:  PC=0x4028 (/cluster/home/jorgfi/vulkan-sim-root/vulkan-sim/../mesa-vulkan-sim/gpgpusimShaders/MESA_SHADER_CLOSEST_HIT_2.ptx:2343) mul.f32 %ssa_416, %ssa_138_0, %ssa_163; // vec1 32 ssa_416 = fmul ssa_138.x, ssa_163
bb_31	:  PC=0x4030 (/cluster/home/jorgfi/vulkan-sim-root/vulkan-sim/../mesa-vulkan-sim/gpgpusimShaders/MESA_SHADER_CLOSEST_HIT_2.ptx:2346) mul.f32 %ssa_417, %ssa_138_1, %ssa_163; // vec1 32 ssa_417 = fmul ssa_138.y, ssa_163
bb_31	:  PC=0x4038 (/cluster/home/jorgfi/vulkan-sim-root/vulkan-sim/../mesa-vulkan-sim/gpgpusimShaders/MESA_SHADER_CLOSEST_HIT_2.ptx:2349) mul.f32 %ssa_418, %ssa_138_2, %ssa_163; // vec1 32 ssa_418 = fmul ssa_138.z, ssa_163
bb_31	:  PC=0x4040 (/cluster/home/jorgfi/vulkan-sim-root/vulkan-sim/../mesa-vulkan-sim/gpgpusimShaders/MESA_SHADER_CLOSEST_HIT_2.ptx:2352) add.f32 %ssa_419, %ssa_415_0, %ssa_416; // vec1 32 ssa_419 = fadd ssa_415.x, ssa_416
bb_31	:  PC=0x4048 (/cluster/home/jorgfi/vulkan-sim-root/vulkan-sim/../mesa-vulkan-sim/gpgpusimShaders/MESA_SHADER_CLOSEST_HIT_2.ptx:2355) add.f32 %ssa_420, %ssa_415_1, %ssa_417; // vec1 32 ssa_420 = fadd ssa_415.y, ssa_417
bb_31	:  PC=0x4050 (/cluster/home/jorgfi/vulkan-sim-root/vulkan-sim/../mesa-vulkan-sim/gpgpusimShaders/MESA_SHADER_CLOSEST_HIT_2.ptx:2358) add.f32 %ssa_421, %ssa_415_2, %ssa_418; // vec1 32 ssa_421 = fadd ssa_415.z, ssa_418
bb_31	:  PC=0x4058 (/cluster/home/jorgfi/vulkan-sim-root/vulkan-sim/../mesa-vulkan-sim/gpgpusimShaders/MESA_SHADER_CLOSEST_HIT_2.ptx:2364) mov.f32 %ssa_422_0, %ssa_419;
bb_31	:  PC=0x4060 (/cluster/home/jorgfi/vulkan-sim-root/vulkan-sim/../mesa-vulkan-sim/gpgpusimShaders/MESA_SHADER_CLOSEST_HIT_2.ptx:2365) mov.f32 %ssa_422_1, %ssa_528_1;
bb_31	:  PC=0x4068 (/cluster/home/jorgfi/vulkan-sim-root/vulkan-sim/../mesa-vulkan-sim/gpgpusimShaders/MESA_SHADER_CLOSEST_HIT_2.ptx:2366) mov.f32 %ssa_422_2, %ssa_528_2;
bb_31	:  PC=0x4070 (/cluster/home/jorgfi/vulkan-sim-root/vulkan-sim/../mesa-vulkan-sim/gpgpusimShaders/MESA_SHADER_CLOSEST_HIT_2.ptx:2367) mov.f32 %ssa_422_3, %ssa_528_3; // vec4 32 ssa_422 = vec4 ssa_419, ssa_528.y, ssa_528.z, ssa_528.w
bb_31	:  PC=0x4078 (/cluster/home/jorgfi/vulkan-sim-root/vulkan-sim/../mesa-vulkan-sim/gpgpusimShaders/MESA_SHADER_CLOSEST_HIT_2.ptx:2369) st.global.f32 [%ssa_413 + 0], %ssa_422_0;
bb_31	:  PC=0x4080 (/cluster/home/jorgfi/vulkan-sim-root/vulkan-sim/../mesa-vulkan-sim/gpgpusimShaders/MESA_SHADER_CLOSEST_HIT_2.ptx:2370) st.global.f32 [%ssa_413 + 4], %ssa_422_1;
bb_31	:  PC=0x4088 (/cluster/home/jorgfi/vulkan-sim-root/vulkan-sim/../mesa-vulkan-sim/gpgpusimShaders/MESA_SHADER_CLOSEST_HIT_2.ptx:2371) st.global.f32 [%ssa_413 + 8], %ssa_422_2;
bb_31	:  PC=0x4090 (/cluster/home/jorgfi/vulkan-sim-root/vulkan-sim/../mesa-vulkan-sim/gpgpusimShaders/MESA_SHADER_CLOSEST_HIT_2.ptx:2372) st.global.f32 [%ssa_413 + 12], %ssa_422_3;
bb_31	:  PC=0x4098 (/cluster/home/jorgfi/vulkan-sim-root/vulkan-sim/../mesa-vulkan-sim/gpgpusimShaders/MESA_SHADER_CLOSEST_HIT_2.ptx:2380) mov.f32 %ssa_423_0, %ssa_419;
bb_31	:  PC=0x40a0 (/cluster/home/jorgfi/vulkan-sim-root/vulkan-sim/../mesa-vulkan-sim/gpgpusimShaders/MESA_SHADER_CLOSEST_HIT_2.ptx:2381) mov.f32 %ssa_423_1, %ssa_420;
bb_31	:  PC=0x40a8 (/cluster/home/jorgfi/vulkan-sim-root/vulkan-sim/../mesa-vulkan-sim/gpgpusimShaders/MESA_SHADER_CLOSEST_HIT_2.ptx:2382) mov.f32 %ssa_423_2, %ssa_528_2;
bb_31	:  PC=0x40b0 (/cluster/home/jorgfi/vulkan-sim-root/vulkan-sim/../mesa-vulkan-sim/gpgpusimShaders/MESA_SHADER_CLOSEST_HIT_2.ptx:2383) mov.f32 %ssa_423_3, %ssa_528_3; // vec4 32 ssa_423 = vec4 ssa_419, ssa_420, ssa_528.z, ssa_528.w
bb_31	:  PC=0x40b8 (/cluster/home/jorgfi/vulkan-sim-root/vulkan-sim/../mesa-vulkan-sim/gpgpusimShaders/MESA_SHADER_CLOSEST_HIT_2.ptx:2385) st.global.f32 [%ssa_413 + 0], %ssa_423_0;
bb_31	:  PC=0x40c0 (/cluster/home/jorgfi/vulkan-sim-root/vulkan-sim/../mesa-vulkan-sim/gpgpusimShaders/MESA_SHADER_CLOSEST_HIT_2.ptx:2386) st.global.f32 [%ssa_413 + 4], %ssa_423_1;
bb_31	:  PC=0x40c8 (/cluster/home/jorgfi/vulkan-sim-root/vulkan-sim/../mesa-vulkan-sim/gpgpusimShaders/MESA_SHADER_CLOSEST_HIT_2.ptx:2387) st.global.f32 [%ssa_413 + 8], %ssa_423_2;
bb_31	:  PC=0x40d0 (/cluster/home/jorgfi/vulkan-sim-root/vulkan-sim/../mesa-vulkan-sim/gpgpusimShaders/MESA_SHADER_CLOSEST_HIT_2.ptx:2388) st.global.f32 [%ssa_413 + 12], %ssa_423_3;
bb_31	:  PC=0x40d8 (/cluster/home/jorgfi/vulkan-sim-root/vulkan-sim/../mesa-vulkan-sim/gpgpusimShaders/MESA_SHADER_CLOSEST_HIT_2.ptx:2396) mov.f32 %ssa_424_0, %ssa_419;
bb_31	:  PC=0x40e0 (/cluster/home/jorgfi/vulkan-sim-root/vulkan-sim/../mesa-vulkan-sim/gpgpusimShaders/MESA_SHADER_CLOSEST_HIT_2.ptx:2397) mov.f32 %ssa_424_1, %ssa_420;
bb_31	:  PC=0x40e8 (/cluster/home/jorgfi/vulkan-sim-root/vulkan-sim/../mesa-vulkan-sim/gpgpusimShaders/MESA_SHADER_CLOSEST_HIT_2.ptx:2398) mov.f32 %ssa_424_2, %ssa_421;
bb_31	:  PC=0x40f0 (/cluster/home/jorgfi/vulkan-sim-root/vulkan-sim/../mesa-vulkan-sim/gpgpusimShaders/MESA_SHADER_CLOSEST_HIT_2.ptx:2399) mov.f32 %ssa_424_3, %ssa_528_3; // vec4 32 ssa_424 = vec4 ssa_419, ssa_420, ssa_421, ssa_528.w
bb_31	:  PC=0x40f8 (/cluster/home/jorgfi/vulkan-sim-root/vulkan-sim/../mesa-vulkan-sim/gpgpusimShaders/MESA_SHADER_CLOSEST_HIT_2.ptx:2401) st.global.f32 [%ssa_413 + 0], %ssa_424_0;
bb_31	:  PC=0x4100 (/cluster/home/jorgfi/vulkan-sim-root/vulkan-sim/../mesa-vulkan-sim/gpgpusimShaders/MESA_SHADER_CLOSEST_HIT_2.ptx:2402) st.global.f32 [%ssa_413 + 4], %ssa_424_1;
bb_31	:  PC=0x4108 (/cluster/home/jorgfi/vulkan-sim-root/vulkan-sim/../mesa-vulkan-sim/gpgpusimShaders/MESA_SHADER_CLOSEST_HIT_2.ptx:2403) st.global.f32 [%ssa_413 + 8], %ssa_424_2;
bb_31	:  PC=0x4110 (/cluster/home/jorgfi/vulkan-sim-root/vulkan-sim/../mesa-vulkan-sim/gpgpusimShaders/MESA_SHADER_CLOSEST_HIT_2.ptx:2404) st.global.f32 [%ssa_413 + 12], %ssa_424_3;

bb_32	:                 (/cluster/home/jorgfi/vulkan-sim-root/vulkan-sim/../mesa-vulkan-sim/gpgpusimShaders/MESA_SHADER_CLOSEST_HIT_2.ptx:2412) ret ;
bb_32	:  PC=0x4118 (/cluster/home/jorgfi/vulkan-sim-root/vulkan-sim/../mesa-vulkan-sim/gpgpusimShaders/MESA_SHADER_CLOSEST_HIT_2.ptx:2412) ret ;

Summary of basic blocks for 'MESA_SHADER_CLOSEST_HIT_func2_main':
bb_00	: first: load_vulkan_descriptor	 last: bra	
bb_01	: first: mov	 last: bra	
bb_02	: first: mov	 last: bra	
bb_03	: first: mov	 last: mov	
bb_04	: first: mov	 last: mov	
bb_05	: first: mov	 last: bra	
bb_06	: first: bra	 last: bra	
bb_07	: first: bra	 last: bra	
bb_08	: first: mov	 last: bra	
bb_09	: first: add	 last: bra	
bb_10	: first: setp	 last: bra	
bb_11	: first: mov	 last: bra	
bb_12	: first: mov	 last: bra	
bb_13	: first: mov	 last: mov	
bb_14	: first: mov	 last: mov	
bb_15	: first: mov	 last: bra	
bb_16	: first: bra	 last: bra	
bb_17	: first: bra	 last: bra	
bb_18	: first: mov	 last: bra	
bb_19	: first: mul	 last: bra	
bb_20	: first: setp	 last: bra	
bb_21	: first: mov	 last: bra	
bb_22	: first: mov	 last: bra	
bb_23	: first: mov	 last: mov	
bb_24	: first: setp	 last: bra	
bb_25	: first: mov	 last: bra	
bb_26	: first: mov	 last: mov	
bb_27	: first: mov	 last: bra	
bb_28	: first: mov	 last: mov	
bb_29	: first: mov	 last: mov	
bb_30	: first: mov	 last: mov	
bb_31	: first: mov	 last: st	
bb_32	: first: ret	 last: ret	
bb_33	: first: NULL	 last: NULL	

GPGPU-Sim PTX: Finding postdominators for 'MESA_SHADER_CLOSEST_HIT_func2_main'...
GPGPU-Sim PTX: Finding immediate postdominators for 'MESA_SHADER_CLOSEST_HIT_func2_main'...
GPGPU-Sim PTX: pre-decoding instructions for 'MESA_SHADER_CLOSEST_HIT_func2_main'...
Operand information not set. load_vulkan_descriptor %TextureSamplers, 0, 8; // decl_var uniform INTERP_MODE_NONE restrict sampler2D[] TextureSamplers (~0, 0, 8)
GPGPU-Sim PTX: reconvergence points for MESA_SHADER_CLOSEST_HIT_func2_main...
GPGPU-Sim PTX:  1 (potential) branch divergence @  PC=0x2ee0 (/cluster/home/jorgfi/vulkan-sim-root/vulkan-sim/../mesa-vulkan-sim/gpgpusimShaders/MESA_SHADER_CLOSEST_HIT_2.ptx:810) @!%ssa_176 bra else_9;
GPGPU-Sim PTX:    immediate post dominator      @  PC=0x3f48 (/cluster/home/jorgfi/vulkan-sim-root/vulkan-sim/../mesa-vulkan-sim/gpgpusimShaders/MESA_SHADER_CLOSEST_HIT_2.ptx:2286) mov.b32 %ssa_541_0, %ssa_531;
GPGPU-Sim PTX:  2 (potential) branch divergence @  PC=0x2f58 (/cluster/home/jorgfi/vulkan-sim-root/vulkan-sim/../mesa-vulkan-sim/gpgpusimShaders/MESA_SHADER_CLOSEST_HIT_2.ptx:854) @!%ssa_184 bra else_10;
GPGPU-Sim PTX:    immediate post dominator      @  PC=0x3030 (/cluster/home/jorgfi/vulkan-sim-root/vulkan-sim/../mesa-vulkan-sim/gpgpusimShaders/MESA_SHADER_CLOSEST_HIT_2.ptx:934) mov.b32 %ssa_437_0, %ssa_427;
GPGPU-Sim PTX:  3 (potential) branch divergence @  PC=0x2fc8 (/cluster/home/jorgfi/vulkan-sim-root/vulkan-sim/../mesa-vulkan-sim/gpgpusimShaders/MESA_SHADER_CLOSEST_HIT_2.ptx:892) bra end_if_10;
GPGPU-Sim PTX:    immediate post dominator      @  PC=0x3030 (/cluster/home/jorgfi/vulkan-sim-root/vulkan-sim/../mesa-vulkan-sim/gpgpusimShaders/MESA_SHADER_CLOSEST_HIT_2.ptx:934) mov.b32 %ssa_437_0, %ssa_427;
GPGPU-Sim PTX:  4 (potential) branch divergence @  PC=0x31a8 (/cluster/home/jorgfi/vulkan-sim-root/vulkan-sim/../mesa-vulkan-sim/gpgpusimShaders/MESA_SHADER_CLOSEST_HIT_2.ptx:1066) @!%ssa_221 bra else_11;
GPGPU-Sim PTX:    immediate post dominator      @  PC=0x31b0 (/cluster/home/jorgfi/vulkan-sim-root/vulkan-sim/../mesa-vulkan-sim/gpgpusimShaders/MESA_SHADER_CLOSEST_HIT_2.ptx:1070) bra loop_4_exit;
GPGPU-Sim PTX:  5 (potential) branch divergence @  PC=0x31b0 (/cluster/home/jorgfi/vulkan-sim-root/vulkan-sim/../mesa-vulkan-sim/gpgpusimShaders/MESA_SHADER_CLOSEST_HIT_2.ptx:1070) bra loop_4_exit;
GPGPU-Sim PTX:    immediate post dominator      @  PC=0x31d0 (/cluster/home/jorgfi/vulkan-sim-root/vulkan-sim/../mesa-vulkan-sim/gpgpusimShaders/MESA_SHADER_CLOSEST_HIT_2.ptx:1093) add.f32 %ssa_222, %ssa_148, %ssa_213;// vec1 32 ssa_222 = fadd ssa_148, ssa_213
GPGPU-Sim PTX:  6 (potential) branch divergence @  PC=0x31b8 (/cluster/home/jorgfi/vulkan-sim-root/vulkan-sim/../mesa-vulkan-sim/gpgpusimShaders/MESA_SHADER_CLOSEST_HIT_2.ptx:1074) bra end_if_11;
GPGPU-Sim PTX:    immediate post dominator      @  PC=0x31c0 (/cluster/home/jorgfi/vulkan-sim-root/vulkan-sim/../mesa-vulkan-sim/gpgpusimShaders/MESA_SHADER_CLOSEST_HIT_2.ptx:1084) mov.s32 %ssa_192, %ssa_205; // vec1 32 ssa_192 = phi block_4: ssa_166, block_8: ssa_205
GPGPU-Sim PTX:  7 (potential) branch divergence @  PC=0x31c8 (/cluster/home/jorgfi/vulkan-sim-root/vulkan-sim/../mesa-vulkan-sim/gpgpusimShaders/MESA_SHADER_CLOSEST_HIT_2.ptx:1087) bra loop_4;
GPGPU-Sim PTX:    immediate post dominator      @  PC=0x3070 (/cluster/home/jorgfi/vulkan-sim-root/vulkan-sim/../mesa-vulkan-sim/gpgpusimShaders/MESA_SHADER_CLOSEST_HIT_2.ptx:956) mov.f32 %ssa_193, 0F00ffffff; // vec1 32 ssa_193 = load_const (0x00ffffff /* 0.000000 */)
GPGPU-Sim PTX:  8 (potential) branch divergence @  PC=0x32b8 (/cluster/home/jorgfi/vulkan-sim-root/vulkan-sim/../mesa-vulkan-sim/gpgpusimShaders/MESA_SHADER_CLOSEST_HIT_2.ptx:1157) bra end_if_9;
GPGPU-Sim PTX:    immediate post dominator      @  PC=0x3f48 (/cluster/home/jorgfi/vulkan-sim-root/vulkan-sim/../mesa-vulkan-sim/gpgpusimShaders/MESA_SHADER_CLOSEST_HIT_2.ptx:2286) mov.b32 %ssa_541_0, %ssa_531;
GPGPU-Sim PTX:  9 (potential) branch divergence @  PC=0x32c8 (/cluster/home/jorgfi/vulkan-sim-root/vulkan-sim/../mesa-vulkan-sim/gpgpusimShaders/MESA_SHADER_CLOSEST_HIT_2.ptx:1168) @!%ssa_228 bra else_12;
GPGPU-Sim PTX:    immediate post dominator      @  PC=0x3e80 (/cluster/home/jorgfi/vulkan-sim-root/vulkan-sim/../mesa-vulkan-sim/gpgpusimShaders/MESA_SHADER_CLOSEST_HIT_2.ptx:2221) mov.b32 %ssa_515_0, %ssa_505;
GPGPU-Sim PTX: 10 (potential) branch divergence @  PC=0x33e0 (/cluster/home/jorgfi/vulkan-sim-root/vulkan-sim/../mesa-vulkan-sim/gpgpusimShaders/MESA_SHADER_CLOSEST_HIT_2.ptx:1268) @!%ssa_252 bra else_13;
GPGPU-Sim PTX:    immediate post dominator      @  PC=0x34b8 (/cluster/home/jorgfi/vulkan-sim-root/vulkan-sim/../mesa-vulkan-sim/gpgpusimShaders/MESA_SHADER_CLOSEST_HIT_2.ptx:1348) mov.b32 %ssa_450_0, %ssa_440;
GPGPU-Sim PTX: 11 (potential) branch divergence @  PC=0x3450 (/cluster/home/jorgfi/vulkan-sim-root/vulkan-sim/../mesa-vulkan-sim/gpgpusimShaders/MESA_SHADER_CLOSEST_HIT_2.ptx:1306) bra end_if_13;
GPGPU-Sim PTX:    immediate post dominator      @  PC=0x34b8 (/cluster/home/jorgfi/vulkan-sim-root/vulkan-sim/../mesa-vulkan-sim/gpgpusimShaders/MESA_SHADER_CLOSEST_HIT_2.ptx:1348) mov.b32 %ssa_450_0, %ssa_440;
GPGPU-Sim PTX: 12 (potential) branch divergence @  PC=0x3630 (/cluster/home/jorgfi/vulkan-sim-root/vulkan-sim/../mesa-vulkan-sim/gpgpusimShaders/MESA_SHADER_CLOSEST_HIT_2.ptx:1480) @!%ssa_289 bra else_14;
GPGPU-Sim PTX:    immediate post dominator      @  PC=0x3638 (/cluster/home/jorgfi/vulkan-sim-root/vulkan-sim/../mesa-vulkan-sim/gpgpusimShaders/MESA_SHADER_CLOSEST_HIT_2.ptx:1484) bra loop_5_exit;
GPGPU-Sim PTX: 13 (potential) branch divergence @  PC=0x3638 (/cluster/home/jorgfi/vulkan-sim-root/vulkan-sim/../mesa-vulkan-sim/gpgpusimShaders/MESA_SHADER_CLOSEST_HIT_2.ptx:1484) bra loop_5_exit;
GPGPU-Sim PTX:    immediate post dominator      @  PC=0x3658 (/cluster/home/jorgfi/vulkan-sim-root/vulkan-sim/../mesa-vulkan-sim/gpgpusimShaders/MESA_SHADER_CLOSEST_HIT_2.ptx:1507) mul.f32 %ssa_290, %ssa_281, %ssa_103;// vec1 32 ssa_290 = fmul ssa_281, ssa_103
GPGPU-Sim PTX: 14 (potential) branch divergence @  PC=0x3640 (/cluster/home/jorgfi/vulkan-sim-root/vulkan-sim/../mesa-vulkan-sim/gpgpusimShaders/MESA_SHADER_CLOSEST_HIT_2.ptx:1488) bra end_if_14;
GPGPU-Sim PTX:    immediate post dominator      @  PC=0x3648 (/cluster/home/jorgfi/vulkan-sim-root/vulkan-sim/../mesa-vulkan-sim/gpgpusimShaders/MESA_SHADER_CLOSEST_HIT_2.ptx:1498) mov.s32 %ssa_260, %ssa_273; // vec1 32 ssa_260 = phi block_14: ssa_166, block_18: ssa_273
GPGPU-Sim PTX: 15 (potential) branch divergence @  PC=0x3650 (/cluster/home/jorgfi/vulkan-sim-root/vulkan-sim/../mesa-vulkan-sim/gpgpusimShaders/MESA_SHADER_CLOSEST_HIT_2.ptx:1501) bra loop_5;
GPGPU-Sim PTX:    immediate post dominator      @  PC=0x34f8 (/cluster/home/jorgfi/vulkan-sim-root/vulkan-sim/../mesa-vulkan-sim/gpgpusimShaders/MESA_SHADER_CLOSEST_HIT_2.ptx:1370) mov.f32 %ssa_261, 0F00ffffff; // vec1 32 ssa_261 = load_const (0x00ffffff /* 0.000000 */)
GPGPU-Sim PTX: 16 (potential) branch divergence @  PC=0x3758 (/cluster/home/jorgfi/vulkan-sim-root/vulkan-sim/../mesa-vulkan-sim/gpgpusimShaders/MESA_SHADER_CLOSEST_HIT_2.ptx:1580) bra end_if_12;
GPGPU-Sim PTX:    immediate post dominator      @  PC=0x3e80 (/cluster/home/jorgfi/vulkan-sim-root/vulkan-sim/../mesa-vulkan-sim/gpgpusimShaders/MESA_SHADER_CLOSEST_HIT_2.ptx:2221) mov.b32 %ssa_515_0, %ssa_505;
GPGPU-Sim PTX: 17 (potential) branch divergence @  PC=0x3768 (/cluster/home/jorgfi/vulkan-sim-root/vulkan-sim/../mesa-vulkan-sim/gpgpusimShaders/MESA_SHADER_CLOSEST_HIT_2.ptx:1591) @!%ssa_299 bra else_15;
GPGPU-Sim PTX:    immediate post dominator      @  PC=0x3db8 (/cluster/home/jorgfi/vulkan-sim-root/vulkan-sim/../mesa-vulkan-sim/gpgpusimShaders/MESA_SHADER_CLOSEST_HIT_2.ptx:2156) mov.b32 %ssa_489_0, %ssa_479;
GPGPU-Sim PTX: 18 (potential) branch divergence @  PC=0x3970 (/cluster/home/jorgfi/vulkan-sim-root/vulkan-sim/../mesa-vulkan-sim/gpgpusimShaders/MESA_SHADER_CLOSEST_HIT_2.ptx:1782) @!%ssa_354 bra else_16;
GPGPU-Sim PTX:    immediate post dominator      @  PC=0x3a18 (/cluster/home/jorgfi/vulkan-sim-root/vulkan-sim/../mesa-vulkan-sim/gpgpusimShaders/MESA_SHADER_CLOSEST_HIT_2.ptx:1848) setp.ge.s32 %ssa_370, %ssa_101, %ssa_0_bits; // vec1  1 ssa_370 = ige ssa_101, ssa_0
GPGPU-Sim PTX: 19 (potential) branch divergence @  PC=0x3a08 (/cluster/home/jorgfi/vulkan-sim-root/vulkan-sim/../mesa-vulkan-sim/gpgpusimShaders/MESA_SHADER_CLOSEST_HIT_2.ptx:1835) bra end_if_16;
GPGPU-Sim PTX:    immediate post dominator      @  PC=0x3a18 (/cluster/home/jorgfi/vulkan-sim-root/vulkan-sim/../mesa-vulkan-sim/gpgpusimShaders/MESA_SHADER_CLOSEST_HIT_2.ptx:1848) setp.ge.s32 %ssa_370, %ssa_101, %ssa_0_bits; // vec1  1 ssa_370 = ige ssa_101, ssa_0
GPGPU-Sim PTX: 20 (potential) branch divergence @  PC=0x3a20 (/cluster/home/jorgfi/vulkan-sim-root/vulkan-sim/../mesa-vulkan-sim/gpgpusimShaders/MESA_SHADER_CLOSEST_HIT_2.ptx:1853) @!%ssa_370 bra else_17;
GPGPU-Sim PTX:    immediate post dominator      @  PC=0x3af8 (/cluster/home/jorgfi/vulkan-sim-root/vulkan-sim/../mesa-vulkan-sim/gpgpusimShaders/MESA_SHADER_CLOSEST_HIT_2.ptx:1933) mov.b32 %ssa_463_0, %ssa_453;
GPGPU-Sim PTX: 21 (potential) branch divergence @  PC=0x3a90 (/cluster/home/jorgfi/vulkan-sim-root/vulkan-sim/../mesa-vulkan-sim/gpgpusimShaders/MESA_SHADER_CLOSEST_HIT_2.ptx:1891) bra end_if_17;
GPGPU-Sim PTX:    immediate post dominator      @  PC=0x3af8 (/cluster/home/jorgfi/vulkan-sim-root/vulkan-sim/../mesa-vulkan-sim/gpgpusimShaders/MESA_SHADER_CLOSEST_HIT_2.ptx:1933) mov.b32 %ssa_463_0, %ssa_453;
GPGPU-Sim PTX: 22 (potential) branch divergence @  PC=0x3cc8 (/cluster/home/jorgfi/vulkan-sim-root/vulkan-sim/../mesa-vulkan-sim/gpgpusimShaders/MESA_SHADER_CLOSEST_HIT_2.ptx:2073) bra end_if_15;
GPGPU-Sim PTX:    immediate post dominator      @  PC=0x3db8 (/cluster/home/jorgfi/vulkan-sim-root/vulkan-sim/../mesa-vulkan-sim/gpgpusimShaders/MESA_SHADER_CLOSEST_HIT_2.ptx:2156) mov.b32 %ssa_489_0, %ssa_479;
GPGPU-Sim PTX: ... end of reconvergence points for MESA_SHADER_CLOSEST_HIT_func2_main
Operand information not set. load_vulkan_descriptor %ssa_6, 0, 7, 7; // vec2 32 ssa_6 = intrinsic vulkan_resource_index (%ssa_0) (0, 7, 7) /* desc_set=0 */ /* binding=7 */ /* desc_type=SSBO */
Operand information not set. load_primitive_id %ssa_12;// vec1 32 ssa_12 = intrinsic load_primitive_id () ()
Operand information not set. load_vulkan_descriptor %ssa_15, 0, 5, 7; // vec2 32 ssa_15 = intrinsic vulkan_resource_index (%ssa_0) (0, 5, 7) /* desc_set=0 */ /* binding=5 */ /* desc_type=SSBO */
Operand information not set. load_vulkan_descriptor %ssa_30, 0, 4, 7; // vec2 32 ssa_30 = intrinsic vulkan_resource_index (%ssa_0) (0, 4, 7) /* desc_set=0 */ /* binding=4 */ /* desc_type=SSBO */
Operand information not set. load_vulkan_descriptor %ssa_93, 0, 6, 7; // vec2 32 ssa_93 = intrinsic vulkan_resource_index (%ssa_0) (0, 6, 7) /* desc_set=0 */ /* binding=6 */ /* desc_type=SSBO */
GPGPU-Sim PTX: ... done pre-decoding instructions for 'MESA_SHADER_CLOSEST_HIT_func2_main'.
GPGPU-Sim: Done functional simulation (1292471435 instructions simulated).
Stats for Kernel 0 Classification

Min 0.000000 Max 15.000000 Average 2.958306 
[ 16777365 1042301217 0 57674445 11632070 122731704 0 0 0 0 0 31210540 5072047 5072047 0 122731704 0 0 0 0 0 0 0 0 0 ]
Stats for Kernel 0 OP Classification

Min 1.000000 Max 143.000000 Average 35.216758 
[ 0 238050151 0 0 31205565 0 0 0 0 0 0 69314227 0 0 0 0 0 0 0 0 0 0 0 40762518 0 0 0 0 0 0 0 88676160 0 0 0 0 0 0 0 0 0 438021981 0 206034049 17096815 0 0 0 0 0 0 0 0 0 0 720896 0 0 5137583 0 5951686 0 16005331 38740807 0 0 4063232 4063232 0 0 4959488 0 0 34055544 0 0 0 0 0 0 0 0 0 0 0 0 0 0 0 0 0 0 0 8126464 0 0 0 131072 5072047 36282587 ]


gpgpu_simulation_time = 0 days, 0 hrs, 21 min, 59 sec (1319 sec)
gpgpu_simulation_rate = 979887 (inst/sec)
Destroy streams for kernel 1: size 0
Max simulated kernels of 1 has reached, exiting.
GPGPU-Sim: *** exit detected ***
