Running from: /cluster/home/jorgfi
Job: vulkan_sim  ID: 23038278  Nodes: idun-07-03


ENVIRONMENT INFO
---------------------------
	- OS:	 Ubuntu 20.04.6 LTS
	- CPU:	 Intel(R) Xeon(R) Gold 6148 CPU @ 2.40GHz
	- RAM:	 753Gi

Sat Sep  6 17:11:33 2025       
+-----------------------------------------------------------------------------------------+
| NVIDIA-SMI 575.57.08              Driver Version: 575.57.08      CUDA Version: 12.9     |
|-----------------------------------------+------------------------+----------------------+
| GPU  Name                 Persistence-M | Bus-Id          Disp.A | Volatile Uncorr. ECC |
| Fan  Temp   Perf          Pwr:Usage/Cap |           Memory-Usage | GPU-Util  Compute M. |
|                                         |                        |               MIG M. |
|=========================================+========================+======================|
|   0  Tesla V100-PCIE-32GB           On  |   00000000:12:00.0 Off |                    0 |
| N/A   28C    P0             23W /  250W |       0MiB /  32768MiB |      0%      Default |
|                                         |                        |                  N/A |
+-----------------------------------------+------------------------+----------------------+
                                                                                         
+-----------------------------------------------------------------------------------------+
| Processes:                                                                              |
|  GPU   GI   CI              PID   Type   Process name                        GPU Memory |
|        ID   ID                                                               Usage      |
|=========================================================================================|
|  No running processes found                                                             |
+-----------------------------------------------------------------------------------------+


SIMULATION SETUP
---------------------
	- Device config:	 /cluster/home/jorgfi/vulkan-sim-root/vulkan-sim/configs/tested-cfgs/CUSTOM
	- gpgpu_ptx_sim_mode:	 0
	- Scene:		 13
	- Dimensions:
		- Width:	 128
		- Height:	 128
	- Samples:		 2
	- Shader type:		 5




STARTING SIMULATION...
--------------------------------------------------------



GPGPU-Sim version 4.0.0 - Vulkan-Sim version 2.0.0 (build gpgpu-sim_git-commit-dc742faa6e5fcfaf415fe51eab71dcf9345388fd-modified_585.0) configured with GPUWattch.

----------------------------------------------------------------------------
INFO - If you only care about PTX execution, ignore this message. GPGPU-Sim supports PTX execution in modern CUDA.
If you want to run PTXPLUS (sm_1x SASS) with a modern card configuration - set the envronment variable
$PTXAS_CUDA_INSTALL_PATH to point a CUDA version compabible with your card configurations (i.e. 8+ for PASCAL, 9+ for VOLTA etc..)
For example: "export $PTXAS_CUDA_INSTALL_PATH=/usr/local/cuda-9.1"

The following text describes why:
If you are using PTXPLUS, only sm_1x is supported and it requires that the app and simulator binaries are compiled in CUDA 4.2 or less.
The simulator requires it since CUDA headers desribe struct sizes in the exec which change from gen to gen.
The apps require 4.2 because new versions of CUDA tools have dropped parsing support for generating sm_1x
When running using modern config (i.e. volta) and PTXPLUS with CUDA 4.2, the $PTXAS_CUDA_INSTALL_PATH env variable is required to get proper register usage
(and hence occupancy) using a version of CUDA that knows the register usage on the real card.

----------------------------------------------------------------------------
setup_environment succeeded
MESA: Linking to LLVM resource bind packing.
Vulkan SDK Header Version: 296

Vulkan Instance Extensions: 
- VK_KHR_device_group_creation (0.0.1)
- VK_KHR_external_fence_capabilities (0.0.1)
- VK_KHR_external_memory_capabilities (0.0.1)
- VK_KHR_external_semaphore_capabilities (0.0.1)
- VK_KHR_get_physical_device_properties2 (0.0.2)
- VK_KHR_get_surface_capabilities2 (0.0.1)
- VK_KHR_surface (0.0.25)
- VK_KHR_surface_protected_capabilities (0.0.1)
- VK_KHR_xcb_surface (0.0.6)
- VK_KHR_xlib_surface (0.0.6)
- VK_EXT_debug_report (0.0.10)
- VK_EXT_debug_utils (0.0.2)
- VK_KHR_portability_enumeration (0.0.1)
- VK_LUNARG_direct_driver_loading (0.0.1)

Vulkan Instance Layers: 
- VK_LAYER_NV_optimus (1.4.303) : NVIDIA Optimus layer
- VK_LAYER_NV_present (1.4.303) : NVIDIA GR2608 layer

Vulkan Devices: 
- [0] UnknownVendor 'llvmpipe (LLVM 10.0.0, 256 bits)' (CPU: vulkan 1.3.254, driver llvmpipe Mesa 23.2.0-devel (git-b8f3e3980e) (LLVM 10.0.0) - 0.0.1)

Setting Device [0]:
Getting ray tracing pipeline properties...
- loading '../../../Scenes/Blender_2.90/flower_with_fcurve_modifiers.obj'... (5148 vertices, 1714 unique vertices, 1 materials) 0.20761s
- loading '../../../Scenes/Blender_2.90/flower_011.obj'... (5148 vertices, 1714 unique vertices, 1 materials) 0.0569309s
- loading '../../../Scenes/Blender_2.90/tail_part_001.obj'... (115590 vertices, 55787 unique vertices, 1 materials) 0.301418s
- loading '../../../Scenes/Blender_2.90/growth_mesh.obj'... (0 vertices, 0 unique vertices, 1 materials) 0.181687s
- loading '../../../Scenes/Blender_2.90/flower.obj'... (5148 vertices, 1714 unique vertices, 1 materials) 0.0751713s
- loading '../../../Scenes/Blender_2.90/Plane_003.obj'... (257400 vertices, 85700 unique vertices, 2 materials) 0.637579s
- loading '../../../Scenes/Blender_2.90/flower_008.obj'... (5148 vertices, 1714 unique vertices, 1 materials) 0.0656004s
- loading '../../../Scenes/Blender_2.90/flower_004.obj'... (5148 vertices, 1714 unique vertices, 1 materials) 0.0658537s
- loading '../../../Scenes/Blender_2.90/tail_part_003.obj'... (115590 vertices, 55785 unique vertices, 1 materials) 0.28625s
- loading '../../../Scenes/Blender_2.90/Plane_004.obj'... (257400 vertices, 85700 unique vertices, 2 materials) 0.620878s
- loading '../../../Scenes/Blender_2.90/flower_017.obj'... (5148 vertices, 1714 unique vertices, 1 materials) 0.0372626s
- loading '../../../Scenes/Blender_2.90/flower_014.obj'... (5148 vertices, 1714 unique vertices, 1 materials) 0.0427392s
- loading '../../../Scenes/Blender_2.90/flower_005.obj'... (5148 vertices, 1714 unique vertices, 1 materials) 0.0628203s
- loading '../../../Scenes/Blender_2.90/tail_part.obj'... (115590 vertices, 55787 unique vertices, 1 materials) 0.328917s
- loading '../../../Scenes/Blender_2.90/lower_hair.obj'... (61776 vertices, 40320 unique vertices, 1 materials) 0.202117s
- loading '../../../Scenes/Blender_2.90/whiskers.obj'... (90720 vertices, 16380 unique vertices, 1 materials) 0.200733s
- loading '../../../Scenes/Blender_2.90/fog_fake_position.obj'... (0 vertices, 0 unique vertices, 1 materials) 0.0492603s
- loading '../../../Scenes/Blender_2.90/flower_018.obj'... (5148 vertices, 1714 unique vertices, 1 materials) 0.0494115s
- loading '../../../Scenes/Blender_2.90/upper_hair.obj'... (200772 vertices, 131040 unique vertices, 1 materials) 0.739703s
- loading '../../../Scenes/Blender_2.90/Plane_002.obj'... (257400 vertices, 85700 unique vertices, 2 materials) 0.635649s
- loading '../../../Scenes/Blender_2.90/tail_part_002.obj'... (115590 vertices, 55787 unique vertices, 1 materials) 0.288638s
- loading '../../../Scenes/Blender_2.90/flower_003.obj'... (5148 vertices, 1714 unique vertices, 1 materials) 0.0777781s
- loading '../../../Scenes/Blender_2.90/eyes.obj'... (2892 vertices, 964 unique vertices, 1 materials) 0.036152s
- loading '../../../Scenes/Blender_2.90/flower_009.obj'... (5148 vertices, 1714 unique vertices, 1 materials) 0.0575909s
- loading '../../../Scenes/Blender_2.90/Plane_005.obj'... (257400 vertices, 85700 unique vertices, 2 materials) 0.620302s
- loading '../../../Scenes/Blender_2.90/flower_015.obj'... (5148 vertices, 1714 unique vertices, 1 materials) 0.0603356s
- loading '../../../Scenes/Blender_2.90/flower_016.obj'... (5148 vertices, 1714 unique vertices, 1 materials) 0.0878376s
- loading '../../../Scenes/Blender_2.90/flower_007.obj'... (5148 vertices, 1714 unique vertices, 1 materials) 0.0427844s
- loading '../../../Scenes/Blender_2.90/Plane_006.obj'... (257400 vertices, 85700 unique vertices, 2 materials) 0.596722s
- loading '../../../Scenes/Blender_2.90/flower_010.obj'... (5148 vertices, 1714 unique vertices, 1 materials) 0.0483146s
- loading '../../../Scenes/Blender_2.90/flower_013.obj'... (5148 vertices, 1714 unique vertices, 1 materials) 0.0460695s
- loading '../../../Scenes/Blender_2.90/Plane_001.obj'... (257400 vertices, 85700 unique vertices, 2 materials) 0.614461s
- loading '../../../Scenes/Blender_2.90/flower_012.obj'... (5148 vertices, 1714 unique vertices, 1 materials) 0.030821s
- loading '../../../Scenes/Blender_2.90/flower_006.obj'... (5148 vertices, 1714 unique vertices, 1 materials) 0.0635377s
- loading '../../../Scenes/Blender_2.90/shadow_caster.obj'... (48 vertices, 16 unique vertices, 1 materials) 0.0543029s
- loading '../../../Scenes/Blender_2.90/flower_002.obj'... (5148 vertices, 1714 unique vertices, 1 materials) 0.0294015s
done loading
- loading '../assets/textures/white.png'... (1 x 1 x 3) 0.0191364s
RTV: Creating device buffer Vertices of size 34510752
LVP: vkBuffer size 34510752 created at 0x55a43cfde248
RTV: New vkBuffer created at 0x55a43cfde248
LLVM: llvmpipe_resource_bind_backing: pipe_screen 0x55a43cd313c0; pipe_resource 0x55a43cfda710; llvmpipe_resource 0x55a43cfda710; pipe_memory_allocation 0x1500c83b7000;
LVP: Binding lvp_buffer 0x55a43cf0d010: buffer->bo: 0x55a43cfda710; buffer->pmem: 0x1500c83b7000; memory-offset: 0;


        *** GPGPU-Sim Simulator Version 4.0.0 - Vulkan-Sim version 2.0.0  [build gpgpu-sim_git-commit-dc742faa6e5fcfaf415fe51eab71dcf9345388fd_modified_1.0] ***


GPGPU-Sim PTX: simulation mode -1092163207 (can change with PTX_SIM_MODE_FUNC environment variable:
               1=functional simulation only, 0=detailed performance simulator)
GPGPU-Sim PTX: overriding embedded ptx with ptx file (PTX_SIM_USE_PTX_FILE is set)
GPGPU-Sim: Configuration options:

-save_embedded_ptx                      0 # saves ptx files embedded in binary as <n>.ptx
-keep                                   0 # keep intermediate files created by GPGPU-Sim when interfacing with external programs
-gpgpu_ptx_save_converted_ptxplus                    0 # Saved converted ptxplus to a file
-gpgpu_occupancy_sm_number                   75 # The SM number to pass to ptxas when getting register usage for computing GPU occupancy. This parameter is required in the config.
-ptx_opcode_latency_int      4,13,4,5,145,32 # Opcode latencies for integers <ADD,MAX,MUL,MAD,DIV,SHFL>Default 1,1,19,25,145,32
-ptx_opcode_latency_fp          4,13,4,5,39 # Opcode latencies for single precision floating points <ADD,MAX,MUL,MAD,DIV>Default 1,1,1,1,30
-ptx_opcode_latency_dp         8,19,8,8,330 # Opcode latencies for double precision floating points <ADD,MAX,MUL,MAD,DIV>Default 8,8,8,8,335
-ptx_opcode_latency_sfu                  100 # Opcode latencies for SFU instructionsDefault 8
-ptx_opcode_latency_tesnor                   64 # Opcode latencies for Tensor instructionsDefault 64
-ptx_opcode_initiation_int          2,2,2,2,8,4 # Opcode initiation intervals for integers <ADD,MAX,MUL,MAD,DIV,SHFL>Default 1,1,4,4,32,4
-ptx_opcode_initiation_fp            2,2,2,2,4 # Opcode initiation intervals for single precision floating points <ADD,MAX,MUL,MAD,DIV>Default 1,1,1,1,5
-ptx_opcode_initiation_dp          4,4,4,4,130 # Opcode initiation intervals for double precision floating points <ADD,MAX,MUL,MAD,DIV>Default 8,8,8,8,130
-ptx_opcode_initiation_sfu                    8 # Opcode initiation intervals for sfu instructionsDefault 8
-ptx_opcode_initiation_tensor                   64 # Opcode initiation intervals for tensor instructionsDefault 64
-cdp_latency         7200,8000,100,12000,1600 # CDP API latency <cudaStreamCreateWithFlags, cudaGetParameterBufferV2_init_perWarp, cudaGetParameterBufferV2_perKernel, cudaLaunchDeviceV2_init_perWarp, cudaLaunchDevicV2_perKernel>Default 7200,8000,100,12000,1600
-network_mode                           2 # Interconnection network mode
-inter_config_file                   mesh # Interconnection network config file
-icnt_in_buffer_limit                  512 # in_buffer_limit
-icnt_out_buffer_limit                  512 # out_buffer_limit
-icnt_subnets                           2 # subnets
-icnt_arbiter_algo                      1 # arbiter_algo
-icnt_verbose                           0 # inct_verbose
-icnt_grant_cycles                      1 # grant_cycles
-gpgpu_ptx_use_cuobjdump                    1 # Use cuobjdump to extract ptx and sass from binaries
-gpgpu_experimental_lib_support                    0 # Try to extract code from cuda libraries [Broken because of unknown cudaGetExportTable]
-checkpoint_option                      0 #  checkpointing flag (0 = no checkpoint)
-checkpoint_kernel                      1 #  checkpointing during execution of which kernel (1- 1st kernel)
-checkpoint_CTA                         0 #  checkpointing after # of CTA (< less than total CTA)
-resume_option                          0 #  resume flag (0 = no resume)
-resume_kernel                          0 #  Resume from which kernel (1= 1st kernel)
-resume_CTA                             0 #  resume from which CTA 
-checkpoint_CTA_t                       0 #  resume from which CTA 
-checkpoint_insn_Y                      0 #  resume from which CTA 
-gpgpu_ptx_convert_to_ptxplus                    0 # Convert SASS (native ISA) to ptxplus and run ptxplus
-gpgpu_ptx_force_max_capability                   75 # Force maximum compute capability
-gpgpu_ptx_inst_debug_to_file                    0 # Dump executed instructions' debug information to file
-gpgpu_ptx_inst_debug_file       inst_debug.txt # Executed instructions' debug output file
-gpgpu_ptx_inst_debug_thread_uid                    1 # Thread UID for executed instructions' debug output
-gpgpu_simd_model                       1 # 1 = post-dominator
-gpgpu_simd_rec_time_out                   -1 # -1 = no reconvergence time out
-gpgpu_simd_rec_size                    6 # number of physical entries in the reconvergence table
-gpgpu_simd_st_size                     6 # number of physical entries in the splits table
-gpgpu_simd_rec_replacement                    0 # reconvergence table replacement policy
-gpgpu_simd_st_replacement                    0 # splits table replacement policy
-gpgpu_shader_core_pipeline              1024:32 # shader core pipeline config, i.e., {<nthread>:<warpsize>}
-gpgpu_tex_cache:l1  N:4:128:256,L:R:m:N:L,T:512:8,128:2 # per-shader L1 texture cache  (READ-ONLY) config  {<nsets>:<bsize>:<assoc>,<rep>:<wr>:<alloc>:<wr_alloc>,<mshr>:<N>:<merge>,<mq>:<rf>}
-gpgpu_const_cache:l1 N:128:64:8,L:R:f:N:L,S:2:64,4 # per-shader L1 constant memory cache  (READ-ONLY) config  {<nsets>:<bsize>:<assoc>,<rep>:<wr>:<alloc>:<wr_alloc>,<mshr>:<N>:<merge>,<mq>} 
-gpgpu_rt_cache:l1   S:32:128:16,L:R:m:L:P,A:256:256,32:0,32 # per-shader L1 constant memory cache  (READ-ONLY) config  {<nsets>:<bsize>:<assoc>,<rep>:<wr>:<alloc>:<wr_alloc>,<mshr>:<N>:<merge>,<mq>} 
-gpgpu_rt_use_l1                        1 # use existing L1 cache instead of dedicated L0 cache 
-gpgpu_rt_perfect_mem                    0 # assume 0 latency BVH accesses 
-gpgpu_rt_coherence_engine                    0 # enable coherency engine (ray sorting) 
-gpgpu_rt_coherence_engine_config 100,10,16,g,0,3,2,0.25 # max cycles, hash 
-gpgpu_rt_disable_rt_cache                    0 # bypass RT cache and connect RT unit directly to interconnect 
-gpgpu_rt_max_warps                     4 # max number of warps concurrently in one rt core 
-gpgpu_rt_max_mshr                     64 # max number of MSHR entries in RT unit 
-gpgpu_rt_coalesce_warps                    0 # try to coalesce memory requests between warps 
-gpgpu_rt_intersection_latency        4,8,8,4,8,8,8 # latency of pipelined intersection tests (7 types)
-gpgpu_rt_intersection_table_type                    0 # type of intersection table
-gpgpu_cache:il1     N:64:128:16,L:R:f:N:L,S:2:48,4 # shader L1 instruction cache config  {<nsets>:<bsize>:<assoc>,<rep>:<wr>:<alloc>:<wr_alloc>,<mshr>:<N>:<merge>,<mq>} 
-gpgpu_cache:dl1     S:1:128:256,L:L:s:N:L,A:256:8,16:0,32 # per-shader L1 data cache config  {<nsets>:<bsize>:<assoc>,<rep>:<wr>:<alloc>:<wr_alloc>,<mshr>:<N>:<merge>,<mq> | none}
-gpgpu_l1_banks                         4 # The number of L1 cache banks
-gpgpu_l1_banks_byte_interleaving                   32 # l1 banks byte interleaving granularity
-gpgpu_l1_banks_hashing_function                    0 # l1 banks hashing function
-gpgpu_l1_latency                      20 # L1 Hit Latency
-gpgpu_smem_latency                    20 # smem Latency
-gpgpu_cache:dl1PrefL1                 none # per-shader L1 data cache config  {<nsets>:<bsize>:<assoc>,<rep>:<wr>:<alloc>:<wr_alloc>,<mshr>:<N>:<merge>,<mq> | none}
-gpgpu_cache:dl1PrefShared                 none # per-shader L1 data cache config  {<nsets>:<bsize>:<assoc>,<rep>:<wr>:<alloc>:<wr_alloc>,<mshr>:<N>:<merge>,<mq> | none}
-gpgpu_gmem_skip_L1D                    0 # global memory access skip L1D cache (implements -Xptxas -dlcm=cg, default=no skip)
-gpgpu_perfect_mem                      0 # enable perfect memory mode (no cache miss)
-n_regfile_gating_group                    4 # group of lanes that should be read/written together)
-gpgpu_clock_gated_reg_file                    0 # enable clock gated reg file for power calculations
-gpgpu_clock_gated_lanes                    0 # enable clock gated lanes for power calculations
-gpgpu_shader_registers                32768 # Number of registers per shader core. Limits number of concurrent CTAs. (default 8192)
-gpgpu_registers_per_block                32768 # Maximum number of registers per CTA. (default 8192)
-gpgpu_ignore_resources_limitation                    0 # gpgpu_ignore_resources_limitation (default 0)
-gpgpu_shader_cta                      16 # Maximum number of concurrent CTAs in shader (default 8)
-gpgpu_num_cta_barriers                   16 # Maximum number of named barriers per CTA (default 16)
-gpgpu_n_clusters                       8 # number of processing clusters
-gpgpu_n_cores_per_cluster                    1 # number of simd cores per cluster
-gpgpu_n_cluster_ejection_buffer_size                   32 # number of packets in ejection buffer
-gpgpu_n_ldst_response_buffer_size                    2 # number of response packets in ld/st unit ejection buffer
-gpgpu_shmem_per_block                65536 # Size of shared memory per thread block or CTA (default 48kB)
-gpgpu_shmem_size                   65536 # Size of shared memory per shader core (default 16kB)
-gpgpu_adaptive_cache_config                    0 # adaptive_cache_config
-gpgpu_shmem_sizeDefault                65536 # Size of shared memory per shader core (default 16kB)
-gpgpu_shmem_size_PrefL1                16384 # Size of shared memory per shader core (default 16kB)
-gpgpu_shmem_size_PrefShared                16384 # Size of shared memory per shader core (default 16kB)
-gpgpu_shmem_num_banks                   32 # Number of banks in the shared memory in each shader core (default 16)
-gpgpu_shmem_limited_broadcast                    0 # Limit shared memory to do one broadcast per cycle (default on)
-gpgpu_shmem_warp_parts                    1 # Number of portions a warp is divided into for shared memory bank conflict check 
-gpgpu_mem_unit_ports                    1 # The number of memory transactions allowed per core cycle
-gpgpu_shmem_warp_parts                    1 # Number of portions a warp is divided into for shared memory bank conflict check 
-gpgpu_warpdistro_shader                   -1 # Specify which shader core to collect the warp size distribution from
-gpgpu_warp_issue_shader                    0 # Specify which shader core to collect the warp issue distribution from
-gpgpu_local_mem_map                    1 # Mapping from local memory space address to simulated GPU physical address space (default = enabled)
-gpgpu_num_reg_banks                   16 # Number of register banks (default = 8)
-gpgpu_reg_bank_use_warp_id                    0 # Use warp ID in mapping registers to banks (default = off)
-gpgpu_sub_core_model                    1 # Sub Core Volta/Pascal model (default = off)
-gpgpu_enable_specialized_operand_collector                    0 # enable_specialized_operand_collector
-gpgpu_operand_collector_num_units_sp                    4 # number of collector units (default = 4)
-gpgpu_operand_collector_num_units_dp                    0 # number of collector units (default = 0)
-gpgpu_operand_collector_num_units_sfu                    4 # number of collector units (default = 4)
-gpgpu_operand_collector_num_units_int                    0 # number of collector units (default = 0)
-gpgpu_operand_collector_num_units_tensor_core                    4 # number of collector units (default = 4)
-gpgpu_operand_collector_num_units_mem                    2 # number of collector units (default = 2)
-gpgpu_operand_collector_num_units_gen                    8 # number of collector units (default = 0)
-gpgpu_operand_collector_num_in_ports_sp                    1 # number of collector unit in ports (default = 1)
-gpgpu_operand_collector_num_in_ports_dp                    0 # number of collector unit in ports (default = 0)
-gpgpu_operand_collector_num_in_ports_sfu                    1 # number of collector unit in ports (default = 1)
-gpgpu_operand_collector_num_in_ports_int                    0 # number of collector unit in ports (default = 0)
-gpgpu_operand_collector_num_in_ports_tensor_core                    1 # number of collector unit in ports (default = 1)
-gpgpu_operand_collector_num_in_ports_mem                    1 # number of collector unit in ports (default = 1)
-gpgpu_operand_collector_num_in_ports_gen                    8 # number of collector unit in ports (default = 0)
-gpgpu_operand_collector_num_out_ports_sp                    1 # number of collector unit in ports (default = 1)
-gpgpu_operand_collector_num_out_ports_dp                    0 # number of collector unit in ports (default = 0)
-gpgpu_operand_collector_num_out_ports_sfu                    1 # number of collector unit in ports (default = 1)
-gpgpu_operand_collector_num_out_ports_int                    0 # number of collector unit in ports (default = 0)
-gpgpu_operand_collector_num_out_ports_tensor_core                    1 # number of collector unit in ports (default = 1)
-gpgpu_operand_collector_num_out_ports_mem                    1 # number of collector unit in ports (default = 1)
-gpgpu_operand_collector_num_out_ports_gen                    8 # number of collector unit in ports (default = 0)
-gpgpu_coalesce_arch                   75 # Coalescing arch (GT200 = 13, Fermi = 20)
-gpgpu_num_sched_per_core                    4 # Number of warp schedulers per core
-gpgpu_max_insn_issue_per_warp                    1 # Max number of instructions that can be issued per warp in one cycle by scheduler (either 1 or 2)
-gpgpu_dual_issue_diff_exec_units                    1 # should dual issue use two different execution unit resources (Default = 1)
-gpgpu_simt_core_sim_order                    1 # Select the simulation order of cores in a cluster (0=Fix, 1=Round-Robin)
-gpgpu_pipeline_widths 4,0,4,4,4,4,0,4,4,4,8,4,4,4,4 # Pipeline widths ID_OC_SP,ID_OC_DP,ID_OC_INT,ID_OC_SFU,ID_OC_MEM,OC_EX_SP,OC_EX_DP,OC_EX_INT,OC_EX_SFU,OC_EX_MEM,EX_WB,ID_OC_TENSOR_CORE,OC_EX_TENSOR_CORE,ID_OC_RT,OC_EX_RT
-gpgpu_tensor_core_avail                    1 # Tensor Core Available (default=0)
-gpgpu_num_sp_units                     4 # Number of SP units (default=1)
-gpgpu_num_dp_units                     0 # Number of DP units (default=0)
-gpgpu_num_int_units                    4 # Number of INT units (default=0)
-gpgpu_num_sfu_units                    4 # Number of SF units (default=1)
-gpgpu_num_tensor_core_units                    4 # Number of tensor_core units (default=1)
-gpgpu_num_rt_core_units                    1 # Number of rt core units (default=1)
-gpgpu_num_mem_units                    1 # Number if ldst units (default=1) WARNING: not hooked up to anything
-gpgpu_scheduler                      gto # Scheduler configuration: < lrr | gto | two_level_active > If two_level_active:<num_active_warps>:<inner_prioritization>:<outer_prioritization>For complete list of prioritization values see shader.h enum scheduler_prioritization_typeDefault: gto
-gpgpu_concurrent_kernel_sm                    0 # Support concurrent kernels on a SM (default = disabled)
-gpgpu_perfect_inst_const_cache                    1 # perfect inst and const cache mode, so all inst and const hits in the cache(default = disabled)
-gpgpu_inst_fetch_throughput                    4 # the number of fetched intruction per warp each cycle
-gpgpu_reg_file_port_throughput                    2 # the number ports of the register file
-specialized_unit_1         0,4,4,4,4,BRA # specialized unit config {<enabled>,<num_units>:<latency>:<initiation>,<ID_OC_SPEC>:<OC_EX_SPEC>,<NAME>}
-specialized_unit_2         0,4,4,4,4,BRA # specialized unit config {<enabled>,<num_units>:<latency>:<initiation>,<ID_OC_SPEC>:<OC_EX_SPEC>,<NAME>}
-specialized_unit_3         0,4,4,4,4,BRA # specialized unit config {<enabled>,<num_units>:<latency>:<initiation>,<ID_OC_SPEC>:<OC_EX_SPEC>,<NAME>}
-specialized_unit_4         0,4,4,4,4,BRA # specialized unit config {<enabled>,<num_units>:<latency>:<initiation>,<ID_OC_SPEC>:<OC_EX_SPEC>,<NAME>}
-specialized_unit_5         0,4,4,4,4,BRA # specialized unit config {<enabled>,<num_units>:<latency>:<initiation>,<ID_OC_SPEC>:<OC_EX_SPEC>,<NAME>}
-specialized_unit_6         0,4,4,4,4,BRA # specialized unit config {<enabled>,<num_units>:<latency>:<initiation>,<ID_OC_SPEC>:<OC_EX_SPEC>,<NAME>}
-specialized_unit_7         0,4,4,4,4,BRA # specialized unit config {<enabled>,<num_units>:<latency>:<initiation>,<ID_OC_SPEC>:<OC_EX_SPEC>,<NAME>}
-specialized_unit_8         0,4,4,4,4,BRA # specialized unit config {<enabled>,<num_units>:<latency>:<initiation>,<ID_OC_SPEC>:<OC_EX_SPEC>,<NAME>}
-gpgpu_perf_sim_memcpy                    1 # Fill the L2 cache on memcpy
-gpgpu_simple_dram_model                    0 # simple_dram_model with fixed latency and BW
-gpgpu_dram_scheduler                    1 # 0 = fifo, 1 = FR-FCFS (defaul)
-gpgpu_dram_partition_queues          64:64:64:64 # i2$:$2d:d2$:$2i
-l2_ideal                               0 # Use a ideal L2 cache that always hit
-gpgpu_cache:dl2     S:64:128:16,L:B:m:L:P,A:192:4,32:0,32 # unified banked L2 data cache config  {<nsets>:<bsize>:<assoc>,<rep>:<wr>:<alloc>:<wr_alloc>,<mshr>:<N>:<merge>,<mq>}
-gpgpu_cache:dl2_texture_only                    0 # L2 cache used for texture only
-gpgpu_n_mem                            4 # number of memory modules (e.g. memory controllers) in gpu
-gpgpu_n_sub_partition_per_mchannel                    1 # number of memory subpartition in each memory module
-gpgpu_n_mem_per_ctrlr                    1 # number of memory chips per memory controller
-gpgpu_memlatency_stat                   14 # track and display latency statistics 0x2 enables MC, 0x4 enables queue logs
-gpgpu_frfcfs_dram_sched_queue_size                   64 # 0 = unlimited (default); # entries per chip
-gpgpu_dram_return_queue_size                  192 # 0 = unlimited (default); # entries per chip
-gpgpu_dram_buswidth                    2 # default = 4 bytes (8 bytes per cycle at DDR)
-gpgpu_dram_burst_length                    8 # Burst length of each DRAM request (default = 4 data bus cycle)
-dram_data_command_freq_ratio                    2 # Frequency ratio between DRAM data bus and command bus (default = 2 times, i.e. DDR)
-gpgpu_dram_timing_opt nbk=16:CCD=4:RRD=10:RCD=20:RAS=50:RP=20:RC=62: CL=20:WL=8:CDLR=9:WR=20:nbkgrp=4:CCDL=4:RTPL=4 # DRAM timing parameters = {nbk:tCCD:tRRD:tRCD:tRAS:tRP:tRC:CL:WL:tCDLR:tWR:nbkgrp:tCCDL:tRTPL}
-gpgpu_l2_rop_latency                  160 # ROP queue latency (default 85)
-dram_latency                         100 # DRAM latency (default 30)
-dram_dual_bus_interface                    0 # dual_bus_interface (default = 0) 
-dram_bnk_indexing_policy                    0 # dram_bnk_indexing_policy (0 = normal indexing, 1 = Xoring with the higher bits) (Default = 0)
-dram_bnkgrp_indexing_policy                    1 # dram_bnkgrp_indexing_policy (0 = take higher bits, 1 = take lower bits) (Default = 0)
-dram_seperate_write_queue_enable                    0 # Seperate_Write_Queue_Enable
-dram_write_queue_size             32:28:16 # Write_Queue_Size
-dram_elimnate_rw_turnaround                    0 # elimnate_rw_turnaround i.e set tWTR and tRTW = 0
-icnt_flit_size                        40 # icnt_flit_size
-gpgpu_mem_addr_mapping dramid@8;00000000.00000000.00000000.00000000.0000RRRR.RRRRRRRR.RBBBCCCC.BCCSSSSS # mapping memory address to dram model {dramid@<start bit>;<memory address map>}
-gpgpu_mem_addr_test                    0 # run sweep test to check address mapping for aliased address
-gpgpu_mem_address_mask                    1 # 0 = old addressing mask, 1 = new addressing mask, 2 = new add. mask + flipped bank sel and chip sel bits
-gpgpu_memory_partition_indexing                    0 # 0 = no indexing, 1 = bitwise xoring, 2 = IPoly, 3 = custom indexing
-gpuwattch_xml_file         gpuwattch.xml # GPUWattch XML file
-power_simulation_enabled                    0 # Turn on power simulator (1=On, 0=Off)
-power_per_cycle_dump                    0 # Dump detailed power output each cycle
-power_trace_enabled                    1 # produce a file for the power trace (1=On, 0=Off)
-power_trace_zlevel                     6 # Compression level of the power trace output log (0=no comp, 9=highest)
-steady_power_levels_enabled                    1 # produce a file for the steady power levels (1=On, 0=Off)
-steady_state_definition                  8:4 # allowed deviation:number of samples
-gpgpu_intermittent_stats                    0 # print intermittent stats
-gpgpu_intermittent_stats_freq                10000 # intermittent stats frequency
-gpgpu_max_cycle                        0 # terminates gpu simulation early (0 = no limit)
-gpgpu_max_insn                         0 # terminates gpu simulation early (0 = no limit)
-gpgpu_max_cta                          0 # terminates gpu simulation early (0 = no limit)
-gpgpu_max_completed_cta                    0 # terminates gpu simulation early (0 = no limit)
-gpgpu_runtime_stat                   500 # display runtime statistics such as dram utilization {<freq>:<flag>}
-liveness_message_freq                    1 # Minimum number of seconds between simulation liveness messages (0 = always print)
-gpgpu_compute_capability_major                    7 # Major compute capability version number
-gpgpu_compute_capability_minor                    5 # Minor compute capability version number
-gpgpu_flush_l1_cache                    1 # Flush L1 cache at the end of each kernel call
-gpgpu_flush_l2_cache                    0 # Flush L2 cache at the end of each kernel call
-gpgpu_deadlock_detect                    1 # Stop the simulation at deadlock (1=on (default), 0=off)
-gpgpu_ptx_instruction_classification                    1 # if enabled will classify ptx instruction types per kernel (Max 255 kernels now)
-gpgpu_ptx_sim_mode                     0 # Select between Performance (default) or Functional simulation (1)
-gpgpu_clock_domains 1365.0:1365.0:1365.0:3500.0 # Clock Domain Frequencies in MhZ {<Core Clock>:<ICNT Clock>:<L2 Clock>:<DRAM Clock>}
-gpgpu_max_concurrent_kernel                    8 # maximum kernels that can run concurrently on GPU
-gpgpu_cflog_interval                    0 # Interval between each snapshot in control flow logger
-visualizer_enabled                     0 # Turn on visualizer output (1=On, 0=Off)
-visualizer_outputfile       regular_ship16 # Specifies the output log file for visualizer
-visualizer_zlevel                      6 # Compression level of the visualizer output log (0=no comp, 9=highest)
-gpgpu_stack_size_limit                 1024 # GPU thread stack size
-gpgpu_heap_size_limit              8388608 # GPU malloc heap size 
-gpgpu_runtime_sync_depth_limit                    2 # GPU device runtime synchronize depth
-gpgpu_runtime_pending_launch_count_limit                 2048 # GPU device runtime pending launch count
-trace_enabled                          0 # Turn on traces
-trace_components                    none # comma seperated list of traces to enable. Complete list found in trace_streams.tup. Default none
-trace_sampling_core                    0 # The core which is printed using CORE_DPRINTF. Default 0
-trace_sampling_memory_partition                   -1 # The memory partition which is printed using MEMPART_DPRINTF. Default -1 (i.e. all)
-enable_ptx_file_line_stats                    1 # Turn on PTX source line statistic profiling. (1 = On)
-ptx_line_stats_filename gpgpu_inst_stats.txt # Output file for PTX source line statistics.
-gpgpu_kernel_launch_latency                 5000 # Kernel launch latency in cycles. Default: 0
-gpgpu_cdp_enabled                      0 # Turn on CDP
-gpgpu_TB_launch_latency                    0 # thread block launch latency in cycles. Default: 0
-gpgpu_max_simulated_rt_kernels                    1 # Max simulated kernels, used to limit how many frames we render. Default: 0
Streaming cache with 4096 mshr
GPGPU-Sim: Ray Coherence Engine Settings:
	Enabled: No
	Max cycles: 100
	Max packets: 16
	Sorting hash: grid-spherical
	Bits: 3-2
DRAM Timing Options:
nbk                                    16 # number of banks
CCD                                     4 # column to column delay
RRD                                    10 # minimal delay between activation of rows in different banks
RCD                                    20 # row to column delay
RAS                                    50 # time needed to activate row
RP                                     20 # time needed to precharge (deactivate) row
RC                                     62 # row cycle time
CDLR                                    9 # switching from write to read (changes tWTR)
WR                                     20 # last data-in to row precharge
CL                                     20 # CAS latency
WL                                      8 # Write latency
nbkgrp                                  4 # number of bank groups
CCDL                                    4 # column to column delay between accesses to different bank groups
RTPL                                    4 # read to precharge delay between accesses to different bank groups
Total number of memory sub partition = 4
addr_dec_mask[CHIP]  = 0000000000000300 	high:10 low:8
addr_dec_mask[BK]    = 000000000001c080 	high:17 low:7
addr_dec_mask[ROW]   = 000000003ffe0000 	high:30 low:17
addr_dec_mask[COL]   = 0000000000003c7f 	high:14 low:0
addr_dec_mask[BURST] = 000000000000001f 	high:5 low:0
sub_partition_id_mask = 0000000000000000
GPGPU-Sim uArch: clock freqs: 1365000000.000000:1365000000.000000:1365000000.000000:3500000000.000000
GPGPU-Sim uArch: clock periods: 0.00000000073260073260:0.00000000073260073260:0.00000000073260073260:0.00000000028571428571
*** Initializing Memory Statistics ***
GPGPU-Sim uArch: performance model initialization complete.
gpgpusim: binding gpgpusim buffer 0xc0000000 (size 34510752) to vulkan buffer 0x1500c83b7000
LVP: gpgpusim buffer size 34510752 allocated at 0xc0000000
RTV: Bind buffer memory for vkBuffer 0x55a43cfde248
LVP: vkBuffer size 34510752 created at 0x55a4427d4248
RTV: New vkBuffer created at 0x55a4427d4248
LLVM: llvmpipe_resource_bind_backing: pipe_screen 0x55a43cd313c0; pipe_resource 0x55a44afa4ce0; llvmpipe_resource 0x55a44afa4ce0; pipe_memory_allocation 0x1500b9f16000;
LVP: Binding lvp_buffer 0x55a44afa4c60: buffer->bo: 0x55a44afa4ce0; buffer->pmem: 0x1500b9f16000; memory-offset: 0;
gpgpusim: binding gpgpusim buffer 0xc20e9800 (size 34510752) to vulkan buffer 0x1500b9f16000
LVP: gpgpusim buffer size 34510752 allocated at 0xc20e9800
RTV: Bind buffer memory for vkBuffer 0x55a4427d4248
LVP: Finding mapped memory for mem 0x55a44afa4ef0: mem->pmem 0x1500b9f16000 
LVP: Identified at 0x1500b9f16000
LVP: Command Buffer:
	VK_CMD_COPY_BUFFER2
RTV: Creating device buffer Indices of size 18763392
LVP: vkBuffer size 18763392 created at 0x55a4427d4248
RTV: New vkBuffer created at 0x55a4427d4248
LLVM: llvmpipe_resource_bind_backing: pipe_screen 0x55a43cd313c0; pipe_resource 0x55a45334c800; llvmpipe_resource 0x55a45334c800; pipe_memory_allocation 0x55a45334d000;
LVP: Binding lvp_buffer 0x55a44afa4ef0: buffer->bo: 0x55a45334c800; buffer->pmem: 0x55a45334d000; memory-offset: 0;
gpgpusim: binding gpgpusim buffer 0xc41d3000 (size 18763392) to vulkan buffer 0x55a45334d000
LVP: gpgpusim buffer size 18763392 allocated at 0xc41d3000
RTV: Bind buffer memory for vkBuffer 0x55a4427d4248
LVP: vkBuffer size 18763392 created at 0x55a45334ae18
RTV: New vkBuffer created at 0x55a45334ae18
LLVM: llvmpipe_resource_bind_backing: pipe_screen 0x55a43cd313c0; pipe_resource 0x55a458cc5250; llvmpipe_resource 0x55a458cc5250; pipe_memory_allocation 0x55a458cc6000;
LVP: Binding lvp_buffer 0x55a45334c6d0: buffer->bo: 0x55a458cc5250; buffer->pmem: 0x55a458cc6000; memory-offset: 0;
gpgpusim: binding gpgpusim buffer 0xc53b7f00 (size 18763392) to vulkan buffer 0x55a458cc6000
LVP: gpgpusim buffer size 18763392 allocated at 0xc53b7f00
RTV: Bind buffer memory for vkBuffer 0x55a45334ae18
LVP: Finding mapped memory for mem 0x55a458cc5460: mem->pmem 0x55a458cc6000 
LVP: Identified at 0x55a458cc6000
LVP: Command Buffer:
	VK_CMD_COPY_BUFFER2
RTV: Creating device buffer Materials of size 1344
LVP: vkBuffer size 1344 created at 0x55a45334ae18
RTV: New vkBuffer created at 0x55a45334ae18
LLVM: llvmpipe_resource_bind_backing: pipe_screen 0x55a43cd313c0; pipe_resource 0x55a458cc6000; llvmpipe_resource 0x55a458cc6000; pipe_memory_allocation 0x55a458cc7000;
LVP: Binding lvp_buffer 0x55a458cc5460: buffer->bo: 0x55a458cc6000; buffer->pmem: 0x55a458cc7000; memory-offset: 0;
gpgpusim: binding gpgpusim buffer 0xc659ce00 (size 1344) to vulkan buffer 0x55a458cc7000
LVP: gpgpusim buffer size 1344 allocated at 0xc659ce00
RTV: Bind buffer memory for vkBuffer 0x55a45334ae18
LVP: vkBuffer size 1344 created at 0x55a458cc7e58
RTV: New vkBuffer created at 0x55a458cc7e58
LLVM: llvmpipe_resource_bind_backing: pipe_screen 0x55a43cd313c0; pipe_resource 0x55a458cc7e70; llvmpipe_resource 0x55a458cc7e70; pipe_memory_allocation 0x55a458cc9000;
LVP: Binding lvp_buffer 0x55a45e63dea0: buffer->bo: 0x55a458cc7e70; buffer->pmem: 0x55a458cc9000; memory-offset: 0;
gpgpusim: binding gpgpusim buffer 0xc659d400 (size 1344) to vulkan buffer 0x55a458cc9000
LVP: gpgpusim buffer size 1344 allocated at 0xc659d400
RTV: Bind buffer memory for vkBuffer 0x55a458cc7e58
LVP: Finding mapped memory for mem 0x55a458cc8080: mem->pmem 0x55a458cc9000 
LVP: Identified at 0x55a458cc9000
LVP: Command Buffer:
	VK_CMD_COPY_BUFFER2
RTV: Creating device buffer Offsets of size 288
LVP: vkBuffer size 288 created at 0x55a458cc7e58
RTV: New vkBuffer created at 0x55a458cc7e58
LLVM: llvmpipe_resource_bind_backing: pipe_screen 0x55a43cd313c0; pipe_resource 0x55a458cc9000; llvmpipe_resource 0x55a458cc9000; pipe_memory_allocation 0x55a458cca000;
LVP: Binding lvp_buffer 0x55a458cc8080: buffer->bo: 0x55a458cc9000; buffer->pmem: 0x55a458cca000; memory-offset: 0;
gpgpusim: binding gpgpusim buffer 0xc659da00 (size 288) to vulkan buffer 0x55a458cca000
LVP: gpgpusim buffer size 288 allocated at 0xc659da00
RTV: Bind buffer memory for vkBuffer 0x55a458cc7e58
LVP: vkBuffer size 288 created at 0x55a458cc9ca8
RTV: New vkBuffer created at 0x55a458cc9ca8
LLVM: llvmpipe_resource_bind_backing: pipe_screen 0x55a43cd313c0; pipe_resource 0x55a458cca1f0; llvmpipe_resource 0x55a458cca1f0; pipe_memory_allocation 0x55a458ccb000;
LVP: Binding lvp_buffer 0x55a458cc9dd0: buffer->bo: 0x55a458cca1f0; buffer->pmem: 0x55a458ccb000; memory-offset: 0;
gpgpusim: binding gpgpusim buffer 0xc659dc00 (size 288) to vulkan buffer 0x55a458ccb000
LVP: gpgpusim buffer size 288 allocated at 0xc659dc00
RTV: Bind buffer memory for vkBuffer 0x55a458cc9ca8
LVP: Finding mapped memory for mem 0x55a458cca400: mem->pmem 0x55a458ccb000 
LVP: Identified at 0x55a458ccb000
LVP: Command Buffer:
	VK_CMD_COPY_BUFFER2
RTV: Creating device buffer AABBs of size 864
LVP: vkBuffer size 864 created at 0x55a458cc9ca8
RTV: New vkBuffer created at 0x55a458cc9ca8
LLVM: llvmpipe_resource_bind_backing: pipe_screen 0x55a43cd313c0; pipe_resource 0x55a458ccab80; llvmpipe_resource 0x55a458ccab80; pipe_memory_allocation 0x55a458ccc000;
LVP: Binding lvp_buffer 0x55a458cca400: buffer->bo: 0x55a458ccab80; buffer->pmem: 0x55a458ccc000; memory-offset: 0;
gpgpusim: binding gpgpusim buffer 0xc659de00 (size 864) to vulkan buffer 0x55a458ccc000
LVP: gpgpusim buffer size 864 allocated at 0xc659de00
RTV: Bind buffer memory for vkBuffer 0x55a458cc9ca8
LVP: vkBuffer size 864 created at 0x55a458cca928
RTV: New vkBuffer created at 0x55a458cca928
LLVM: llvmpipe_resource_bind_backing: pipe_screen 0x55a43cd313c0; pipe_resource 0x55a458ccbbf0; llvmpipe_resource 0x55a458ccbbf0; pipe_memory_allocation 0x55a458ccd000;
LVP: Binding lvp_buffer 0x55a458ccaa50: buffer->bo: 0x55a458ccbbf0; buffer->pmem: 0x55a458ccd000; memory-offset: 0;
gpgpusim: binding gpgpusim buffer 0xc659e200 (size 864) to vulkan buffer 0x55a458ccd000
LVP: gpgpusim buffer size 864 allocated at 0xc659e200
RTV: Bind buffer memory for vkBuffer 0x55a458cca928
LVP: Finding mapped memory for mem 0x55a458ccbe00: mem->pmem 0x55a458ccd000 
LVP: Identified at 0x55a458ccd000
LVP: Command Buffer:
	VK_CMD_COPY_BUFFER2
RTV: Creating device buffer Procedurals of size 576
LVP: vkBuffer size 576 created at 0x55a458cca928
RTV: New vkBuffer created at 0x55a458cca928
LLVM: llvmpipe_resource_bind_backing: pipe_screen 0x55a43cd313c0; pipe_resource 0x55a458ccd6f0; llvmpipe_resource 0x55a458ccd6f0; pipe_memory_allocation 0x55a458cce000;
LVP: Binding lvp_buffer 0x55a458ccbe00: buffer->bo: 0x55a458ccd6f0; buffer->pmem: 0x55a458cce000; memory-offset: 0;
gpgpusim: binding gpgpusim buffer 0xc659e600 (size 576) to vulkan buffer 0x55a458cce000
LVP: gpgpusim buffer size 576 allocated at 0xc659e600
RTV: Bind buffer memory for vkBuffer 0x55a458cca928
LVP: vkBuffer size 576 created at 0x55a458ccd498
RTV: New vkBuffer created at 0x55a458ccd498
LLVM: llvmpipe_resource_bind_backing: pipe_screen 0x55a43cd313c0; pipe_resource 0x55a458cce3d0; llvmpipe_resource 0x55a458cce3d0; pipe_memory_allocation 0x55a458ccf000;
LVP: Binding lvp_buffer 0x55a458ccd5c0: buffer->bo: 0x55a458cce3d0; buffer->pmem: 0x55a458ccf000; memory-offset: 0;
gpgpusim: binding gpgpusim buffer 0xc659e900 (size 576) to vulkan buffer 0x55a458ccf000
LVP: gpgpusim buffer size 576 allocated at 0xc659e900
RTV: Bind buffer memory for vkBuffer 0x55a458ccd498
LVP: Finding mapped memory for mem 0x55a458cce5e0: mem->pmem 0x55a458ccf000 
LVP: Identified at 0x55a458ccf000
LVP: Command Buffer:
	VK_CMD_COPY_BUFFER2
RTV: Creating device buffer CubeAABBs of size 864
LVP: vkBuffer size 864 created at 0x55a458ccd498
RTV: New vkBuffer created at 0x55a458ccd498
LLVM: llvmpipe_resource_bind_backing: pipe_screen 0x55a43cd313c0; pipe_resource 0x55a458ccf450; llvmpipe_resource 0x55a458ccf450; pipe_memory_allocation 0x55a458cd0000;
LVP: Binding lvp_buffer 0x55a458cce5e0: buffer->bo: 0x55a458ccf450; buffer->pmem: 0x55a458cd0000; memory-offset: 0;
gpgpusim: binding gpgpusim buffer 0xc659ec00 (size 864) to vulkan buffer 0x55a458cd0000
LVP: gpgpusim buffer size 864 allocated at 0xc659ec00
RTV: Bind buffer memory for vkBuffer 0x55a458ccd498
LVP: vkBuffer size 864 created at 0x55a458ccef88
RTV: New vkBuffer created at 0x55a458ccef88
LLVM: llvmpipe_resource_bind_backing: pipe_screen 0x55a43cd313c0; pipe_resource 0x55a458cd06f0; llvmpipe_resource 0x55a458cd06f0; pipe_memory_allocation 0x55a458cd1000;
LVP: Binding lvp_buffer 0x55a458ccf320: buffer->bo: 0x55a458cd06f0; buffer->pmem: 0x55a458cd1000; memory-offset: 0;
gpgpusim: binding gpgpusim buffer 0xc659f000 (size 864) to vulkan buffer 0x55a458cd1000
LVP: gpgpusim buffer size 864 allocated at 0xc659f000
RTV: Bind buffer memory for vkBuffer 0x55a458ccef88
LVP: Finding mapped memory for mem 0x55a458cd0900: mem->pmem 0x55a458cd1000 
LVP: Identified at 0x55a458cd1000
LVP: Command Buffer:
	VK_CMD_COPY_BUFFER2
RTV: Creating device buffer ProceduralCubes of size 576
LVP: vkBuffer size 576 created at 0x55a458ccef88
RTV: New vkBuffer created at 0x55a458ccef88
LLVM: llvmpipe_resource_bind_backing: pipe_screen 0x55a43cd313c0; pipe_resource 0x55a458cd1cb0; llvmpipe_resource 0x55a458cd1cb0; pipe_memory_allocation 0x55a458cd2000;
LVP: Binding lvp_buffer 0x55a458cd0900: buffer->bo: 0x55a458cd1cb0; buffer->pmem: 0x55a458cd2000; memory-offset: 0;
gpgpusim: binding gpgpusim buffer 0xc659f400 (size 576) to vulkan buffer 0x55a458cd2000
LVP: gpgpusim buffer size 576 allocated at 0xc659f400
RTV: Bind buffer memory for vkBuffer 0x55a458ccef88
LVP: vkBuffer size 576 created at 0x55a458ccffe8
RTV: New vkBuffer created at 0x55a458ccffe8
LLVM: llvmpipe_resource_bind_backing: pipe_screen 0x55a43cd313c0; pipe_resource 0x55a458cd2ad0; llvmpipe_resource 0x55a458cd2ad0; pipe_memory_allocation 0x55a458cd3000;
LVP: Binding lvp_buffer 0x55a458cd1b80: buffer->bo: 0x55a458cd2ad0; buffer->pmem: 0x55a458cd3000; memory-offset: 0;
gpgpusim: binding gpgpusim buffer 0xc659f700 (size 576) to vulkan buffer 0x55a458cd3000
LVP: gpgpusim buffer size 576 allocated at 0xc659f700
RTV: Bind buffer memory for vkBuffer 0x55a458ccffe8
LVP: Finding mapped memory for mem 0x55a458cd2ce0: mem->pmem 0x55a458cd3000 
LVP: Identified at 0x55a458cd3000
LVP: Command Buffer:
	VK_CMD_COPY_BUFFER2
RTV: Creating device buffer CylinderAABBs of size 864
LVP: vkBuffer size 864 created at 0x55a458ccffe8
RTV: New vkBuffer created at 0x55a458ccffe8
LLVM: llvmpipe_resource_bind_backing: pipe_screen 0x55a43cd313c0; pipe_resource 0x55a458cd2ad0; llvmpipe_resource 0x55a458cd2ad0; pipe_memory_allocation 0x55a458cd4000;
LVP: Binding lvp_buffer 0x55a458cd2ce0: buffer->bo: 0x55a458cd2ad0; buffer->pmem: 0x55a458cd4000; memory-offset: 0;
gpgpusim: binding gpgpusim buffer 0xc659fa00 (size 864) to vulkan buffer 0x55a458cd4000
LVP: gpgpusim buffer size 864 allocated at 0xc659fa00
RTV: Bind buffer memory for vkBuffer 0x55a458ccffe8
LVP: vkBuffer size 864 created at 0x55a458cd3b78
RTV: New vkBuffer created at 0x55a458cd3b78
LLVM: llvmpipe_resource_bind_backing: pipe_screen 0x55a43cd313c0; pipe_resource 0x55a458cd5070; llvmpipe_resource 0x55a458cd5070; pipe_memory_allocation 0x55a458cd6000;
LVP: Binding lvp_buffer 0x55a458cd3c10: buffer->bo: 0x55a458cd5070; buffer->pmem: 0x55a458cd6000; memory-offset: 0;
gpgpusim: binding gpgpusim buffer 0xc659fe00 (size 864) to vulkan buffer 0x55a458cd6000
LVP: gpgpusim buffer size 864 allocated at 0xc659fe00
RTV: Bind buffer memory for vkBuffer 0x55a458cd3b78
LVP: Finding mapped memory for mem 0x55a458cd5280: mem->pmem 0x55a458cd6000 
LVP: Identified at 0x55a458cd6000
LVP: Command Buffer:
	VK_CMD_COPY_BUFFER2
RTV: Creating device buffer ProceduralCylinders of size 576
LVP: vkBuffer size 576 created at 0x55a458cd3b78
RTV: New vkBuffer created at 0x55a458cd3b78
LLVM: llvmpipe_resource_bind_backing: pipe_screen 0x55a43cd313c0; pipe_resource 0x55a458cd5070; llvmpipe_resource 0x55a458cd5070; pipe_memory_allocation 0x55a458cd7000;
LVP: Binding lvp_buffer 0x55a458cd5280: buffer->bo: 0x55a458cd5070; buffer->pmem: 0x55a458cd7000; memory-offset: 0;
gpgpusim: binding gpgpusim buffer 0xc65a0200 (size 576) to vulkan buffer 0x55a458cd7000
LVP: gpgpusim buffer size 576 allocated at 0xc65a0200
RTV: Bind buffer memory for vkBuffer 0x55a458cd3b78
LVP: vkBuffer size 576 created at 0x55a458cd6748
RTV: New vkBuffer created at 0x55a458cd6748
LLVM: llvmpipe_resource_bind_backing: pipe_screen 0x55a43cd313c0; pipe_resource 0x55a458cd7350; llvmpipe_resource 0x55a458cd7350; pipe_memory_allocation 0x55a458cd8000;
LVP: Binding lvp_buffer 0x55a458cd67e0: buffer->bo: 0x55a458cd7350; buffer->pmem: 0x55a458cd8000; memory-offset: 0;
gpgpusim: binding gpgpusim buffer 0xc65a0500 (size 576) to vulkan buffer 0x55a458cd8000
LVP: gpgpusim buffer size 576 allocated at 0xc65a0500
RTV: Bind buffer memory for vkBuffer 0x55a458cd6748
LVP: Finding mapped memory for mem 0x55a458cd7560: mem->pmem 0x55a458cd8000 
LVP: Identified at 0x55a458cd8000
LVP: Command Buffer:
	VK_CMD_COPY_BUFFER2
LVP: vkBuffer size 4 created at 0x55a458cc6fd8
RTV: New vkBuffer created at 0x55a458cc6fd8
LLVM: llvmpipe_resource_bind_backing: pipe_screen 0x55a43cd313c0; pipe_resource 0x55a458cd7350; llvmpipe_resource 0x55a458cd7350; pipe_memory_allocation 0x55a458cd9000;
LVP: Binding lvp_buffer 0x55a458cd7560: buffer->bo: 0x55a458cd7350; buffer->pmem: 0x55a458cd9000; memory-offset: 0;
gpgpusim: binding gpgpusim buffer 0xc65a0800 (size 4) to vulkan buffer 0x55a458cd9000
LVP: gpgpusim buffer size 4 allocated at 0xc65a0800
RTV: Bind buffer memory for vkBuffer 0x55a458cc6fd8
LVP: Finding mapped memory for mem 0x55a458cd67e0: mem->pmem 0x55a458cd9000 
LVP: Identified at 0x55a458cd9000
LVP: Image created at 0x55a442bfe788
RTV: Creating image at 0x55a458cd8250
LLVM: llvmpipe_resource_bind_backing: pipe_screen 0x55a43cd313c0; pipe_resource 0x55a458cd8310; llvmpipe_resource 0x55a458cd8310; pipe_memory_allocation 0x55a458cda000;
gpgpusim: binding gpgpusim buffer 0xc65a0900 (size 256) to vulkan buffer 0x55a458cda000
LVP: Image 0x55a458cd8250 bound to pmem 0x55a458cda000 using pointer 0xc65a0900
LVP: Creating image_view for image 0x55a458cd8250
RTV: Creating image view at 0x55a458cc9f00
LVP: Command Buffer:
	VK_CMD_PIPELINE_BARRIER2
LVP: Command Buffer:
	VK_CMD_COPY_BUFFER_TO_IMAGE2
LVP: Command Buffer:
	VK_CMD_PIPELINE_BARRIER2
lvp_GetAccelerationStructureBuildSizesKHR
LVP: Size of BVH structure is 0x64d40
RTV: Rounding size of BVH structure up to 0x64e00
lvp_GetAccelerationStructureBuildSizesKHR
LVP: Size of BVH structure is 0x64d40
RTV: Rounding size of BVH structure up to 0x64e00
lvp_GetAccelerationStructureBuildSizesKHR
LVP: Size of BVH structure is 0x97c7c0
RTV: Rounding size of BVH structure up to 0x97c800
lvp_GetAccelerationStructureBuildSizesKHR
LVP: Size of BVH structure is 0x140
RTV: Rounding size of BVH structure up to 0x200
lvp_GetAccelerationStructureBuildSizesKHR
LVP: Size of BVH structure is 0x64d40
RTV: Rounding size of BVH structure up to 0x64e00
lvp_GetAccelerationStructureBuildSizesKHR
LVP: Size of BVH structure is 0x13af1c0
RTV: Rounding size of BVH structure up to 0x13af200
lvp_GetAccelerationStructureBuildSizesKHR
LVP: Size of BVH structure is 0x64d40
RTV: Rounding size of BVH structure up to 0x64e00
lvp_GetAccelerationStructureBuildSizesKHR
LVP: Size of BVH structure is 0x64d40
RTV: Rounding size of BVH structure up to 0x64e00
lvp_GetAccelerationStructureBuildSizesKHR
LVP: Size of BVH structure is 0x97c5c0
RTV: Rounding size of BVH structure up to 0x97c600
lvp_GetAccelerationStructureBuildSizesKHR
LVP: Size of BVH structure is 0x13af1c0
RTV: Rounding size of BVH structure up to 0x13af200
lvp_GetAccelerationStructureBuildSizesKHR
LVP: Size of BVH structure is 0x64d40
RTV: Rounding size of BVH structure up to 0x64e00
lvp_GetAccelerationStructureBuildSizesKHR
LVP: Size of BVH structure is 0x64d40
RTV: Rounding size of BVH structure up to 0x64e00
lvp_GetAccelerationStructureBuildSizesKHR
LVP: Size of BVH structure is 0x64d40
RTV: Rounding size of BVH structure up to 0x64e00
lvp_GetAccelerationStructureBuildSizesKHR
LVP: Size of BVH structure is 0x97c8c0
RTV: Rounding size of BVH structure up to 0x97c900
lvp_GetAccelerationStructureBuildSizesKHR
LVP: Size of BVH structure is 0x4b96c0
RTV: Rounding size of BVH structure up to 0x4b9700
lvp_GetAccelerationStructureBuildSizesKHR
LVP: Size of BVH structure is 0x707ec0
RTV: Rounding size of BVH structure up to 0x707f00
lvp_GetAccelerationStructureBuildSizesKHR
LVP: Size of BVH structure is 0x140
RTV: Rounding size of BVH structure up to 0x200
lvp_GetAccelerationStructureBuildSizesKHR
LVP: Size of BVH structure is 0x64d40
RTV: Rounding size of BVH structure up to 0x64e00
lvp_GetAccelerationStructureBuildSizesKHR
LVP: Size of BVH structure is 0xf5a840
RTV: Rounding size of BVH structure up to 0xf5a900
lvp_GetAccelerationStructureBuildSizesKHR
LVP: Size of BVH structure is 0x13af1c0
RTV: Rounding size of BVH structure up to 0x13af200
lvp_GetAccelerationStructureBuildSizesKHR
LVP: Size of BVH structure is 0x97c6c0
RTV: Rounding size of BVH structure up to 0x97c700
lvp_GetAccelerationStructureBuildSizesKHR
LVP: Size of BVH structure is 0x64d40
RTV: Rounding size of BVH structure up to 0x64e00
lvp_GetAccelerationStructureBuildSizesKHR
LVP: Size of BVH structure is 0x3c0c0
RTV: Rounding size of BVH structure up to 0x3c100
lvp_GetAccelerationStructureBuildSizesKHR
LVP: Size of BVH structure is 0x64d40
RTV: Rounding size of BVH structure up to 0x64e00
lvp_GetAccelerationStructureBuildSizesKHR
LVP: Size of BVH structure is 0x13af1c0
RTV: Rounding size of BVH structure up to 0x13af200
lvp_GetAccelerationStructureBuildSizesKHR
LVP: Size of BVH structure is 0x64d40
RTV: Rounding size of BVH structure up to 0x64e00
lvp_GetAccelerationStructureBuildSizesKHR
LVP: Size of BVH structure is 0x64d40
RTV: Rounding size of BVH structure up to 0x64e00
lvp_GetAccelerationStructureBuildSizesKHR
LVP: Size of BVH structure is 0x64d40
RTV: Rounding size of BVH structure up to 0x64e00
lvp_GetAccelerationStructureBuildSizesKHR
LVP: Size of BVH structure is 0x13af1c0
RTV: Rounding size of BVH structure up to 0x13af200
lvp_GetAccelerationStructureBuildSizesKHR
LVP: Size of BVH structure is 0x64d40
RTV: Rounding size of BVH structure up to 0x64e00
lvp_GetAccelerationStructureBuildSizesKHR
LVP: Size of BVH structure is 0x64d40
RTV: Rounding size of BVH structure up to 0x64e00
lvp_GetAccelerationStructureBuildSizesKHR
LVP: Size of BVH structure is 0x13af1c0
RTV: Rounding size of BVH structure up to 0x13af200
lvp_GetAccelerationStructureBuildSizesKHR
LVP: Size of BVH structure is 0x64d40
RTV: Rounding size of BVH structure up to 0x64e00
lvp_GetAccelerationStructureBuildSizesKHR
LVP: Size of BVH structure is 0x64d40
RTV: Rounding size of BVH structure up to 0x64e00
lvp_GetAccelerationStructureBuildSizesKHR
LVP: Size of BVH structure is 0x7c0
RTV: Rounding size of BVH structure up to 0x800
lvp_GetAccelerationStructureBuildSizesKHR
LVP: Size of BVH structure is 0x64d40
RTV: Rounding size of BVH structure up to 0x64e00
RTV: Total accel structure size = 0x64e00 + 0x64e00 + 0x97c800 + 0x200 + 0x64e00 + 0x13af200 + 0x64e00 + 0x64e00 + 0x97c600 + 0x13af200 + 0x64e00 + 0x64e00 + 0x64e00 + 0x97c900 + 0x4b9700 + 0x707f00 + 0x200 + 0x64e00 + 0xf5a900 + 0x13af200 + 0x97c700 + 0x64e00 + 0x3c100 + 0x64e00 + 0x13af200 + 0x64e00 + 0x64e00 + 0x64e00 + 0x13af200 + 0x64e00 + 0x64e00 + 0x13af200 + 0x64e00 + 0x64e00 + 0x800 + 0x64e00 + ... = 0xbee2000
LVP: vkBuffer size 200155136 created at 0x55a458cd8a18
RTV: New vkBuffer created at 0x55a458cd8a18
LLVM: llvmpipe_resource_bind_backing: pipe_screen 0x55a43cd313c0; pipe_resource 0x55a43d370050; llvmpipe_resource 0x55a43d370050; pipe_memory_allocation 0x1500b011d000;
LVP: Binding lvp_buffer 0x55a458cd67e0: buffer->bo: 0x55a43d370050; buffer->pmem: 0x1500b011d000; memory-offset: 0;
gpgpusim: binding gpgpusim buffer 0xc65a0a00 (size 200155136) to vulkan buffer 0x1500b011d000
LVP: gpgpusim buffer size 200155136 allocated at 0xc65a0a00
RTV: Bind buffer memory for vkBuffer 0x55a458cd8a18
LVP: vkBuffer size 106329472 created at 0x55a458cd8fe8
RTV: New vkBuffer created at 0x55a458cd8fe8
LLVM: llvmpipe_resource_bind_backing: pipe_screen 0x55a43cd313c0; pipe_resource 0x55a48cff6e90; llvmpipe_resource 0x55a48cff6e90; pipe_memory_allocation 0x1500a9bb4000;
LVP: Binding lvp_buffer 0x55a458cd8bb0: buffer->bo: 0x55a48cff6e90; buffer->pmem: 0x1500a9bb4000; memory-offset: 0;
gpgpusim: binding gpgpusim buffer 0xd2482a00 (size 106329472) to vulkan buffer 0x1500a9bb4000
LVP: gpgpusim buffer size 106329472 allocated at 0xd2482a00
RTV: Bind buffer memory for vkBuffer 0x55a458cd8fe8
RTV: Created buffer for 0xbee2000 size BLAS at 0x55a458cd67e0
RTV: Creating bottom level acceleration structure 0...
RTV: Creating acceleration struction of size 0x64e00
lvp_CreateAccelerationStructureKHR
LVP: Accel structure (size 0x64e00) created from lvp_buffer (size 0xbee2000). 
LVP: Buffer 0x1500b011d000 + 0x0 = 0x1500b011d000 allocated to accel structure 0x55a43cfadc70
gpgpusim: set BLAS address for 0xbee2000 at 0x1500b011d000 to 0xc65a0a00
RTV: Building BLAS into 0x55a43cfadc70
LVP: Building acceleration structure
gpgpusim: set geometry
EMBREE: 3225 triangles added; total: 3225
EMBREE: New rtcBVH structure created at 0x55a43f36c0d0
EMBREE: Building 6 wide tree (max depth 32) using quality 1
EMBREE: Build BVH with root 0x55a4a6599380
Compressed Node: i	exp: (0, 0, 0)	origin: (-3.893683, 4.483842, 1.211255)
Children:
	0x55a4a65993e8: (52, 84, 66), (113, 183, 138)
	0x55a4a65afc90: (49, 59, 0), (134, 181, 66)
	0x55a4a65b6770: (3, 0, 66), (56, 91, 91)
	0x55a4a65bc140: (0, 77, 67), (62, 188, 126)
	0x55a4a65c15c0: (24, 39, 0), (69, 176, 70)
	0x55a4a65c6538: (67, 130, 48), (122, 181, 70)
EMBREE: Set dst_map 0x1500b011d000 = accel->address.bo 0x1500b011d000 + accel->address.offset 0x0 for accel 0x55a43cfadc70
EMBREE: Pack bvh 0x7fff123c2d80 to dst_map 0x1500b011d000
EMBREE: Pack root 0x55a4a6599380 to root_map 0x1500b011d040
EMBREE: Release rtcBVH structure created at 0x55a43f36c0d0
RTV: Creating bottom level acceleration structure 1...
RTV: Creating acceleration struction of size 0x64e00
lvp_CreateAccelerationStructureKHR
LVP: Accel structure (size 0x64e00) created from lvp_buffer (size 0xbee2000). 
LVP: Buffer 0x1500b011d000 + 0x64e00 = 0x1500b0181e00 allocated to accel structure 0x55a43cfadb20
gpgpusim: set BLAS address for 0xbee2000 at 0x1500b0181e00 to 0xc6605800
RTV: Building BLAS into 0x55a43cfadb20
LVP: Building acceleration structure
gpgpusim: set geometry
EMBREE: 3225 triangles added; total: 3225
EMBREE: New rtcBVH structure created at 0x55a43f36c0d0
EMBREE: Building 6 wide tree (max depth 32) using quality 1
EMBREE: Build BVH with root 0x55a4a6599380
Compressed Node: i	exp: (-1, -1, -2)	origin: (-5.396090, 4.073305, -1.806311)
Children:
	0x55a4a65993e8: (0, 41, 12), (73, 162, 129)
	0x55a4a65aca60: (57, 0, 33), (145, 79, 136)
	0x55a4a65b5b18: (13, 43, 110), (70, 166, 191)
	0x55a4a65bdc28: (66, 65, 70), (125, 121, 207)
	0x55a4a65c4550: (54, 97, 0), (123, 167, 128)
	0x55a4a65c6fb0: (57, 82, 124), (121, 152, 218)
EMBREE: Set dst_map 0x1500b0181e00 = accel->address.bo 0x1500b011d000 + accel->address.offset 0x64e00 for accel 0x55a43cfadb20
EMBREE: Pack bvh 0x7fff123c2d80 to dst_map 0x1500b0181e00
EMBREE: Pack root 0x55a4a6599380 to root_map 0x1500b0181e40
EMBREE: Release rtcBVH structure created at 0x55a43f36c0d0
RTV: Creating bottom level acceleration structure 2...
RTV: Creating acceleration struction of size 0x97c800
lvp_CreateAccelerationStructureKHR
LVP: Accel structure (size 0x97c800) created from lvp_buffer (size 0xbee2000). 
LVP: Buffer 0x1500b011d000 + 0xc9c00 = 0x1500b01e6c00 allocated to accel structure 0x55a43cfd82f0
gpgpusim: set BLAS address for 0xbee2000 at 0x1500b01e6c00 to 0xc666a600
RTV: Building BLAS into 0x55a43cfd82f0
LVP: Building acceleration structure
gpgpusim: set geometry
EMBREE: 77710 triangles added; total: 77710
EMBREE: New rtcBVH structure created at 0x55a43f36c0d0
EMBREE: Building 6 wide tree (max depth 32) using quality 1
EMBREE: Build BVH with root 0x55a4a65b3000
Compressed Node: i	exp: (4, 2, 2)	origin: (-8.735484, 0.732084, -2.690812)
Children:
	0x55a4a65b3068: (78, 56, 44), (117, 169, 174)
	0x55a4a6714490: (49, 0, 14), (81, 91, 150)
	0x55a4a67bc500: (48, 78, 43), (82, 158, 173)
	0x55a4a685ac80: (110, 76, 0), (150, 252, 108)
	0x55a4a68daee8: (28, 22, 22), (53, 146, 154)
	0x55a4a6913cc0: (0, 55, 71), (33, 148, 148)
EMBREE: Set dst_map 0x1500b01e6c00 = accel->address.bo 0x1500b011d000 + accel->address.offset 0xc9c00 for accel 0x55a43cfd82f0
EMBREE: Pack bvh 0x7fff123c2d80 to dst_map 0x1500b01e6c00
EMBREE: Pack root 0x55a4a65b3000 to root_map 0x1500b01e6c40
EMBREE: Release rtcBVH structure created at 0x55a43f36c0d0
RTV: Creating bottom level acceleration structure 3...
RTV: Creating acceleration struction of size 0x200
lvp_CreateAccelerationStructureKHR
LVP: Accel structure (size 0x200) created from lvp_buffer (size 0xbee2000). 
LVP: Buffer 0x1500b011d000 + 0xa46400 = 0x1500b0b63400 allocated to accel structure 0x55a43cfd8350
gpgpusim: set BLAS address for 0xbee2000 at 0x1500b0b63400 to 0xc6fe6e00
RTV: Building BLAS into 0x55a43cfd8350
LVP: Building acceleration structure
gpgpusim: set geometry
EMBREE: 0 triangles added; total: 0
EMBREE: New rtcBVH structure created at 0x55a43f36c0d0
EMBREE: Set dst_map 0x1500b0b63400 = accel->address.bo 0x1500b011d000 + accel->address.offset 0xa46400 for accel 0x55a43cfd8350
EMBREE: Pack bvh 0x7fff123c2d80 to dst_map 0x1500b0b63400
EMBREE: Pack root 0x7fff123c2e20 to root_map 0x1500b0b63440
EMBREE: Release rtcBVH structure created at 0x55a43f36c0d0
RTV: Creating bottom level acceleration structure 4...
RTV: Creating acceleration struction of size 0x64e00
lvp_CreateAccelerationStructureKHR
LVP: Accel structure (size 0x64e00) created from lvp_buffer (size 0xbee2000). 
LVP: Buffer 0x1500b011d000 + 0xa46600 = 0x1500b0b63600 allocated to accel structure 0x55a43cfae920
gpgpusim: set BLAS address for 0xbee2000 at 0x1500b0b63600 to 0xc6fe7000
RTV: Building BLAS into 0x55a43cfae920
LVP: Building acceleration structure
gpgpusim: set geometry
EMBREE: 3225 triangles added; total: 3225
EMBREE: New rtcBVH structure created at 0x55a43f36c0d0
EMBREE: Building 6 wide tree (max depth 32) using quality 1
EMBREE: Build BVH with root 0x55a4a659b080
Compressed Node: i	exp: (-1, -1, -1)	origin: (-3.703947, 3.428947, 1.853497)
Children:
	0x55a4a659b0e8: (57, 23, 48), (92, 165, 127)
	0x55a4a65afe08: (84, 0, 0), (130, 65, 162)
	0x55a4a65b7e08: (0, 65, 47), (66, 158, 128)
	0x55a4a65be980: (25, 23, 90), (103, 136, 175)
	0x55a4a65c55a8: (78, 48, 78), (132, 135, 175)
	0x55a4a65c8bf0: (71, 53, 35), (104, 165, 105)
EMBREE: Set dst_map 0x1500b0b63600 = accel->address.bo 0x1500b011d000 + accel->address.offset 0xa46600 for accel 0x55a43cfae920
EMBREE: Pack bvh 0x7fff123c2d80 to dst_map 0x1500b0b63600
EMBREE: Pack root 0x55a4a659b080 to root_map 0x1500b0b63640
EMBREE: Release rtcBVH structure created at 0x55a43f36c0d0
RTV: Creating bottom level acceleration structure 5...
RTV: Creating acceleration struction of size 0x13af200
lvp_CreateAccelerationStructureKHR
LVP: Accel structure (size 0x13af200) created from lvp_buffer (size 0xbee2000). 
LVP: Buffer 0x1500b011d000 + 0xaab400 = 0x1500b0bc8400 allocated to accel structure 0x55a4a659ed00
gpgpusim: set BLAS address for 0xbee2000 at 0x1500b0bc8400 to 0xc704be00
RTV: Building BLAS into 0x55a4a659ed00
LVP: Building acceleration structure
gpgpusim: set geometry
EMBREE: 161250 triangles added; total: 161250
EMBREE: New rtcBVH structure created at 0x55a43f36c0d0
EMBREE: Building 6 wide tree (max depth 32) using quality 1
EMBREE: Build BVH with root 0x55a4a65b3000
Compressed Node: i	exp: (3, 2, 1)	origin: (-5.192022, 2.738931, 2.477183)
Children:
	0x55a4a65b3068: (144, 0, 0), (201, 30, 70)
	0x55a4a679c028: (47, 140, 106), (71, 172, 191)
	0x55a4a69125b0: (0, 177, 75), (39, 207, 161)
	0x55a4a6a65208: (94, 12, 40), (141, 38, 102)
	0x55a4a6b90f88: (69, 28, 53), (86, 53, 135)
	0x55a4a6c972e0: (58, 61, 109), (71, 104, 184)
EMBREE: Set dst_map 0x1500b0bc8400 = accel->address.bo 0x1500b011d000 + accel->address.offset 0xaab400 for accel 0x55a4a659ed00
EMBREE: Pack bvh 0x7fff123c2d80 to dst_map 0x1500b0bc8400
EMBREE: Pack root 0x55a4a65b3000 to root_map 0x1500b0bc8440
EMBREE: Release rtcBVH structure created at 0x55a43f36c0d0
RTV: Creating bottom level acceleration structure 6...
RTV: Creating acceleration struction of size 0x64e00
lvp_CreateAccelerationStructureKHR
LVP: Accel structure (size 0x64e00) created from lvp_buffer (size 0xbee2000). 
LVP: Buffer 0x1500b011d000 + 0x1e5a600 = 0x1500b1f77600 allocated to accel structure 0x55a4a659eda0
gpgpusim: set BLAS address for 0xbee2000 at 0x1500b1f77600 to 0xc83fb000
RTV: Building BLAS into 0x55a4a659eda0
LVP: Building acceleration structure
gpgpusim: set geometry
EMBREE: 3225 triangles added; total: 3225
EMBREE: New rtcBVH structure created at 0x55a43f36c0d0
EMBREE: Building 6 wide tree (max depth 32) using quality 1
EMBREE: Build BVH with root 0x55a4a659b080
Compressed Node: i	exp: (-1, -1, -1)	origin: (-4.141518, 3.309789, 2.622321)
Children:
	0x55a4a659b0e8: (49, 41, 51), (83, 151, 184)
	0x55a4a65b0cb0: (57, 49, 51), (141, 150, 143)
	0x55a4a65b8720: (25, 0, 0), (90, 54, 84)
	0x55a4a65bf370: (61, 39, 127), (135, 141, 182)
	0x55a4a65c4d28: (0, 42, 66), (73, 151, 186)
	0x55a4a65c8550: (2, 16, 76), (88, 64, 182)
EMBREE: Set dst_map 0x1500b1f77600 = accel->address.bo 0x1500b011d000 + accel->address.offset 0x1e5a600 for accel 0x55a4a659eda0
EMBREE: Pack bvh 0x7fff123c2d80 to dst_map 0x1500b1f77600
EMBREE: Pack root 0x55a4a659b080 to root_map 0x1500b1f77640
EMBREE: Release rtcBVH structure created at 0x55a43f36c0d0
RTV: Creating bottom level acceleration structure 7...
RTV: Creating acceleration struction of size 0x64e00
lvp_CreateAccelerationStructureKHR
LVP: Accel structure (size 0x64e00) created from lvp_buffer (size 0xbee2000). 
LVP: Buffer 0x1500b011d000 + 0x1ebf400 = 0x1500b1fdc400 allocated to accel structure 0x55a4a659dbc0
gpgpusim: set BLAS address for 0xbee2000 at 0x1500b1fdc400 to 0xc845fe00
RTV: Building BLAS into 0x55a4a659dbc0
LVP: Building acceleration structure
gpgpusim: set geometry
EMBREE: 3225 triangles added; total: 3225
EMBREE: New rtcBVH structure created at 0x55a43f36c0d0
EMBREE: Building 6 wide tree (max depth 32) using quality 1
EMBREE: Build BVH with root 0x55a4a659b080
Compressed Node: i	exp: (-1, -1, -1)	origin: (-5.278958, 6.323322, 2.320997)
Children:
	0x55a4a659b0e8: (61, 55, 64), (191, 98, 134)
	0x55a4a65b1ee0: (0, 7, 60), (105, 61, 117)
	0x55a4a65baff8: (61, 78, 60), (190, 144, 124)
	0x55a4a65c1a00: (90, 51, 0), (193, 93, 70)
	0x55a4a65c62c0: (89, 0, 5), (195, 73, 89)
	0x55a4a65cab00: (68, 85, 48), (190, 144, 72)
EMBREE: Set dst_map 0x1500b1fdc400 = accel->address.bo 0x1500b011d000 + accel->address.offset 0x1ebf400 for accel 0x55a4a659dbc0
EMBREE: Pack bvh 0x7fff123c2d80 to dst_map 0x1500b1fdc400
EMBREE: Pack root 0x55a4a659b080 to root_map 0x1500b1fdc440
EMBREE: Release rtcBVH structure created at 0x55a43f36c0d0
RTV: Creating bottom level acceleration structure 8...
RTV: Creating acceleration struction of size 0x97c600
lvp_CreateAccelerationStructureKHR
LVP: Accel structure (size 0x97c600) created from lvp_buffer (size 0xbee2000). 
LVP: Buffer 0x1500b011d000 + 0x1f24200 = 0x1500b2041200 allocated to accel structure 0x55a4a659dc60
gpgpusim: set BLAS address for 0xbee2000 at 0x1500b2041200 to 0xc84c4c00
RTV: Building BLAS into 0x55a4a659dc60
LVP: Building acceleration structure
gpgpusim: set geometry
EMBREE: 77706 triangles added; total: 77706
EMBREE: New rtcBVH structure created at 0x55a43f36c0d0
EMBREE: Building 6 wide tree (max depth 32) using quality 1
EMBREE: Build BVH with root 0x55a4a65b3000
Compressed Node: i	exp: (4, 4, 3)	origin: (-13.223786, 0.993135, -4.512797)
Children:
	0x55a4a65b3068: (8, 14, 3), (85, 75, 138)
	0x55a4a66e5540: (22, 65, 68), (82, 127, 146)
	0x55a4a677d528: (78, 0, 48), (156, 65, 118)
	0x55a4a680deb8: (0, 65, 7), (86, 147, 78)
	0x55a4a68806f0: (143, 4, 60), (216, 71, 118)
	0x55a4a68e34f0: (77, 2, 0), (131, 144, 55)
EMBREE: Set dst_map 0x1500b2041200 = accel->address.bo 0x1500b011d000 + accel->address.offset 0x1f24200 for accel 0x55a4a659dc60
EMBREE: Pack bvh 0x7fff123c2d80 to dst_map 0x1500b2041200
EMBREE: Pack root 0x55a4a65b3000 to root_map 0x1500b2041240
EMBREE: Release rtcBVH structure created at 0x55a43f36c0d0
RTV: Creating bottom level acceleration structure 9...
RTV: Creating acceleration struction of size 0x13af200
lvp_CreateAccelerationStructureKHR
LVP: Accel structure (size 0x13af200) created from lvp_buffer (size 0xbee2000). 
LVP: Buffer 0x1500b011d000 + 0x28a0800 = 0x1500b29bd800 allocated to accel structure 0x55a4a659dd00
gpgpusim: set BLAS address for 0xbee2000 at 0x1500b29bd800 to 0xc8e41200
RTV: Building BLAS into 0x55a4a659dd00
LVP: Building acceleration structure
gpgpusim: set geometry
EMBREE: 161250 triangles added; total: 161250
EMBREE: New rtcBVH structure created at 0x55a43f36c0d0
EMBREE: Building 6 wide tree (max depth 32) using quality 1
EMBREE: Build BVH with root 0x55a4a65b3000
Compressed Node: i	exp: (3, 3, 2)	origin: (-4.687670, 3.082341, 0.073222)
Children:
	0x55a4a65b3068: (43, 73, 24), (73, 104, 89)
	0x55a4a67996e0: (45, 42, 81), (61, 74, 126)
	0x55a4a6911290: (134, 0, 0), (193, 19, 27)
	0x55a4a6a61dd0: (73, 15, 36), (128, 41, 81)
	0x55a4a6b69470: (28, 75, 79), (44, 105, 159)
	0x55a4a6c4a4a0: (0, 95, 37), (20, 130, 125)
EMBREE: Set dst_map 0x1500b29bd800 = accel->address.bo 0x1500b011d000 + accel->address.offset 0x28a0800 for accel 0x55a4a659dd00
EMBREE: Pack bvh 0x7fff123c2d80 to dst_map 0x1500b29bd800
EMBREE: Pack root 0x55a4a65b3000 to root_map 0x1500b29bd840
EMBREE: Release rtcBVH structure created at 0x55a43f36c0d0
RTV: Creating bottom level acceleration structure 10...
RTV: Creating acceleration struction of size 0x64e00
lvp_CreateAccelerationStructureKHR
LVP: Accel structure (size 0x64e00) created from lvp_buffer (size 0xbee2000). 
LVP: Buffer 0x1500b011d000 + 0x3c4fa00 = 0x1500b3d6ca00 allocated to accel structure 0x55a4a659dda0
gpgpusim: set BLAS address for 0xbee2000 at 0x1500b3d6ca00 to 0xca1f0400
RTV: Building BLAS into 0x55a4a659dda0
LVP: Building acceleration structure
gpgpusim: set geometry
EMBREE: 3225 triangles added; total: 3225
EMBREE: New rtcBVH structure created at 0x55a43f36c0d0
EMBREE: Building 6 wide tree (max depth 32) using quality 1
EMBREE: Build BVH with root 0x55a4a659b080
Compressed Node: i	exp: (-2, -2, -2)	origin: (1.772665, 4.171144, 0.931260)
Children:
	0x55a4a659b0e8: (53, 41, 48), (140, 150, 100)
	0x55a4a65af950: (0, 79, 12), (64, 125, 112)
	0x55a4a65b7e30: (90, 0, 91), (171, 77, 140)
	0x55a4a65bfde8: (51, 36, 0), (127, 150, 63)
	0x55a4a65c64d0: (3, 16, 84), (93, 123, 135)
	0x55a4a65c9c10: (0, 16, 24), (82, 108, 111)
EMBREE: Set dst_map 0x1500b3d6ca00 = accel->address.bo 0x1500b011d000 + accel->address.offset 0x3c4fa00 for accel 0x55a4a659dda0
EMBREE: Pack bvh 0x7fff123c2d80 to dst_map 0x1500b3d6ca00
EMBREE: Pack root 0x55a4a659b080 to root_map 0x1500b3d6ca40
EMBREE: Release rtcBVH structure created at 0x55a43f36c0d0
RTV: Creating bottom level acceleration structure 11...
RTV: Creating acceleration struction of size 0x64e00
lvp_CreateAccelerationStructureKHR
LVP: Accel structure (size 0x64e00) created from lvp_buffer (size 0xbee2000). 
LVP: Buffer 0x1500b011d000 + 0x3cb4800 = 0x1500b3dd1800 allocated to accel structure 0x55a4a659de40
gpgpusim: set BLAS address for 0xbee2000 at 0x1500b3dd1800 to 0xca255200
RTV: Building BLAS into 0x55a4a659de40
LVP: Building acceleration structure
gpgpusim: set geometry
EMBREE: 3225 triangles added; total: 3225
EMBREE: New rtcBVH structure created at 0x55a43f36c0d0
EMBREE: Building 6 wide tree (max depth 32) using quality 1
EMBREE: Build BVH with root 0x55a4a659b080
Compressed Node: i	exp: (-2, -1, -2)	origin: (1.100795, 2.739063, 1.737893)
Children:
	0x55a4a659b0e8: (121, 0, 0), (218, 67, 138)
	0x55a4a65af0d0: (70, 24, 62), (136, 94, 216)
	0x55a4a65b87c0: (70, 81, 19), (137, 131, 208)
	0x55a4a65c0180: (0, 25, 61), (108, 113, 190)
	0x55a4a65c7ae0: (102, 66, 27), (219, 131, 195)
	0x55a4a65c9d98: (123, 54, 78), (219, 88, 146)
EMBREE: Set dst_map 0x1500b3dd1800 = accel->address.bo 0x1500b011d000 + accel->address.offset 0x3cb4800 for accel 0x55a4a659de40
EMBREE: Pack bvh 0x7fff123c2d80 to dst_map 0x1500b3dd1800
EMBREE: Pack root 0x55a4a659b080 to root_map 0x1500b3dd1840
EMBREE: Release rtcBVH structure created at 0x55a43f36c0d0
RTV: Creating bottom level acceleration structure 12...
RTV: Creating acceleration struction of size 0x64e00
lvp_CreateAccelerationStructureKHR
LVP: Accel structure (size 0x64e00) created from lvp_buffer (size 0xbee2000). 
LVP: Buffer 0x1500b011d000 + 0x3d19600 = 0x1500b3e36600 allocated to accel structure 0x55a4a659dee0
gpgpusim: set BLAS address for 0xbee2000 at 0x1500b3e36600 to 0xca2ba000
RTV: Building BLAS into 0x55a4a659dee0
LVP: Building acceleration structure
gpgpusim: set geometry
EMBREE: 3225 triangles added; total: 3225
EMBREE: New rtcBVH structure created at 0x55a43f36c0d0
EMBREE: Building 6 wide tree (max depth 32) using quality 1
EMBREE: Build BVH with root 0x55a4a659b080
Compressed Node: i	exp: (-2, -2, -2)	origin: (-2.917420, 5.466431, 3.547478)
Children:
	0x55a4a659b0e8: (104, 32, 80), (228, 92, 106)
	0x55a4a65b0f38: (0, 72, 83), (124, 107, 133)
	0x55a4a65b96a8: (87, 13, 0), (240, 86, 86)
	0x55a4a65bfe68: (88, 53, 0), (226, 130, 81)
	0x55a4a65c5f70: (104, 68, 94), (231, 130, 161)
	0x55a4a65c9758: (112, 0, 91), (231, 61, 156)
EMBREE: Set dst_map 0x1500b3e36600 = accel->address.bo 0x1500b011d000 + accel->address.offset 0x3d19600 for accel 0x55a4a659dee0
EMBREE: Pack bvh 0x7fff123c2d80 to dst_map 0x1500b3e36600
EMBREE: Pack root 0x55a4a659b080 to root_map 0x1500b3e36640
EMBREE: Release rtcBVH structure created at 0x55a43f36c0d0
RTV: Creating bottom level acceleration structure 13...
RTV: Creating acceleration struction of size 0x97c900
lvp_CreateAccelerationStructureKHR
LVP: Accel structure (size 0x97c900) created from lvp_buffer (size 0xbee2000). 
LVP: Buffer 0x1500b011d000 + 0x3d7e400 = 0x1500b3e9b400 allocated to accel structure 0x55a4a659df80
gpgpusim: set BLAS address for 0xbee2000 at 0x1500b3e9b400 to 0xca31ee00
RTV: Building BLAS into 0x55a4a659df80
LVP: Building acceleration structure
gpgpusim: set geometry
EMBREE: 77712 triangles added; total: 77712
EMBREE: New rtcBVH structure created at 0x55a43f36c0d0
EMBREE: Building 6 wide tree (max depth 32) using quality 1
EMBREE: Build BVH with root 0x55a4a65b3000
Compressed Node: i	exp: (4, 4, 3)	origin: (-12.064192, -0.292721, -3.588181)
Children:
	0x55a4a65b3068: (95, 0, 9), (160, 59, 145)
	0x55a4a6720b78: (147, 7, 0), (208, 100, 101)
	0x55a4a67bfb08: (48, 1, 11), (101, 35, 152)
	0x55a4a6847c10: (30, 32, 16), (101, 64, 171)
	0x55a4a68c0630: (19, 60, 39), (89, 136, 67)
	0x55a4a6904e90: (0, 56, 62), (69, 131, 172)
EMBREE: Set dst_map 0x1500b3e9b400 = accel->address.bo 0x1500b011d000 + accel->address.offset 0x3d7e400 for accel 0x55a4a659df80
EMBREE: Pack bvh 0x7fff123c2d80 to dst_map 0x1500b3e9b400
EMBREE: Pack root 0x55a4a65b3000 to root_map 0x1500b3e9b440
EMBREE: Release rtcBVH structure created at 0x55a43f36c0d0
RTV: Creating bottom level acceleration structure 14...
RTV: Creating acceleration struction of size 0x4b9700
lvp_CreateAccelerationStructureKHR
LVP: Accel structure (size 0x4b9700) created from lvp_buffer (size 0xbee2000). 
LVP: Buffer 0x1500b011d000 + 0x46fad00 = 0x1500b4817d00 allocated to accel structure 0x55a4a659e020
gpgpusim: set BLAS address for 0xbee2000 at 0x1500b4817d00 to 0xcac9b700
RTV: Building BLAS into 0x55a4a659e020
LVP: Building acceleration structure
gpgpusim: set geometry
EMBREE: 38700 triangles added; total: 38700
EMBREE: New rtcBVH structure created at 0x55a43f36c0d0
EMBREE: Building 6 wide tree (max depth 32) using quality 1
EMBREE: Build BVH with root 0x55a4a65b3000
Compressed Node: i	exp: (4, 2, 2)	origin: (-6.336146, 1.240169, -2.211283)
Children:
	0x55a4a65b3068: (80, 68, 83), (128, 223, 172)
	0x55a4a665e2d0: (80, 12, 0), (133, 224, 105)
	0x55a4a66de0a0: (55, 13, 40), (89, 234, 215)
	0x55a4a67456d8: (35, 0, 42), (62, 182, 233)
	0x55a4a6766448: (0, 6, 76), (42, 159, 151)
	0x55a4a67753f8: (0, 133, 201), (41, 238, 227)
EMBREE: Set dst_map 0x1500b4817d00 = accel->address.bo 0x1500b011d000 + accel->address.offset 0x46fad00 for accel 0x55a4a659e020
EMBREE: Pack bvh 0x7fff123c2d80 to dst_map 0x1500b4817d00
EMBREE: Pack root 0x55a4a65b3000 to root_map 0x1500b4817d40
EMBREE: Release rtcBVH structure created at 0x55a43f36c0d0
RTV: Creating bottom level acceleration structure 15...
RTV: Creating acceleration struction of size 0x707f00
lvp_CreateAccelerationStructureKHR
LVP: Accel structure (size 0x707f00) created from lvp_buffer (size 0xbee2000). 
LVP: Buffer 0x1500b011d000 + 0x4bb4400 = 0x1500b4cd1400 allocated to accel structure 0x55a4a6599e20
gpgpusim: set BLAS address for 0xbee2000 at 0x1500b4cd1400 to 0xcb154e00
RTV: Building BLAS into 0x55a4a6599e20
LVP: Building acceleration structure
gpgpusim: set geometry
EMBREE: 57596 triangles added; total: 57596
EMBREE: New rtcBVH structure created at 0x55a43f36c0d0
EMBREE: Building 6 wide tree (max depth 32) using quality 1
EMBREE: Build BVH with root 0x55a4a65b3000
Compressed Node: i	exp: (2, 2, 2)	origin: (-1.304858, 3.020134, 0.459548)
Children:
	0x55a4a65b3068: (38, 39, 45), (129, 82, 67)
	0x55a4a66fe8f8: (17, 126, 5), (153, 145, 38)
	0x55a4a67be510: (9, 26, 24), (158, 85, 48)
	0x55a4a68347a8: (64, 0, 151), (147, 38, 209)
	0x55a4a6877278: (0, 142, 0), (66, 195, 39)
	0x55a4a6891c28: (111, 142, 0), (168, 195, 38)
EMBREE: Set dst_map 0x1500b4cd1400 = accel->address.bo 0x1500b011d000 + accel->address.offset 0x4bb4400 for accel 0x55a4a6599e20
EMBREE: Pack bvh 0x7fff123c2d80 to dst_map 0x1500b4cd1400
EMBREE: Pack root 0x55a4a65b3000 to root_map 0x1500b4cd1440
EMBREE: Release rtcBVH structure created at 0x55a43f36c0d0
RTV: Creating bottom level acceleration structure 16...
RTV: Creating acceleration struction of size 0x200
lvp_CreateAccelerationStructureKHR
LVP: Accel structure (size 0x200) created from lvp_buffer (size 0xbee2000). 
LVP: Buffer 0x1500b011d000 + 0x52bc300 = 0x1500b53d9300 allocated to accel structure 0x55a4a6599e80
gpgpusim: set BLAS address for 0xbee2000 at 0x1500b53d9300 to 0xcb85cd00
RTV: Building BLAS into 0x55a4a6599e80
LVP: Building acceleration structure
gpgpusim: set geometry
EMBREE: 0 triangles added; total: 0
EMBREE: New rtcBVH structure created at 0x55a43f36c0d0
EMBREE: Set dst_map 0x1500b53d9300 = accel->address.bo 0x1500b011d000 + accel->address.offset 0x52bc300 for accel 0x55a4a6599e80
EMBREE: Pack bvh 0x7fff123c2d80 to dst_map 0x1500b53d9300
EMBREE: Pack root 0x7fff123c2e20 to root_map 0x1500b53d9340
EMBREE: Release rtcBVH structure created at 0x55a43f36c0d0
RTV: Creating bottom level acceleration structure 17...
RTV: Creating acceleration struction of size 0x64e00
lvp_CreateAccelerationStructureKHR
LVP: Accel structure (size 0x64e00) created from lvp_buffer (size 0xbee2000). 
LVP: Buffer 0x1500b011d000 + 0x52bc500 = 0x1500b53d9500 allocated to accel structure 0x55a4a6599f50
gpgpusim: set BLAS address for 0xbee2000 at 0x1500b53d9500 to 0xcb85cf00
RTV: Building BLAS into 0x55a4a6599f50
LVP: Building acceleration structure
gpgpusim: set geometry
EMBREE: 3225 triangles added; total: 3225
EMBREE: New rtcBVH structure created at 0x55a43f36c0d0
EMBREE: Building 6 wide tree (max depth 32) using quality 1
EMBREE: Build BVH with root 0x55a4a659b080
Compressed Node: i	exp: (-2, -2, -2)	origin: (1.883562, 3.744770, 0.215219)
Children:
	0x55a4a659b0e8: (0, 42, 55), (121, 168, 92)
	0x55a4a65b7e58: (5, 108, 72), (124, 167, 144)
	0x55a4a65be038: (97, 0, 79), (169, 70, 99)
	0x55a4a65c3710: (6, 37, 5), (62, 144, 63)
	0x55a4a65c8940: (17, 61, 77), (131, 133, 144)
	0x55a4a65cade8: (45, 37, 0), (112, 144, 64)
EMBREE: Set dst_map 0x1500b53d9500 = accel->address.bo 0x1500b011d000 + accel->address.offset 0x52bc500 for accel 0x55a4a6599f50
EMBREE: Pack bvh 0x7fff123c2d80 to dst_map 0x1500b53d9500
EMBREE: Pack root 0x55a4a659b080 to root_map 0x1500b53d9540
EMBREE: Release rtcBVH structure created at 0x55a43f36c0d0
RTV: Creating bottom level acceleration structure 18...
[...]
GPGPU-Sim PTX:  8 (potential) branch divergence @  PC=0x2fb0 (/cluster/home/jorgfi/vulkan-sim-root/vulkan-sim/../mesa-vulkan-sim/gpgpusimShaders/MESA_SHADER_CLOSEST_HIT_2.ptx:1115) bra end_if_7;
GPGPU-Sim PTX:    immediate post dominator      @  PC=0x3c40 (/cluster/home/jorgfi/vulkan-sim-root/vulkan-sim/../mesa-vulkan-sim/gpgpusimShaders/MESA_SHADER_CLOSEST_HIT_2.ptx:2244) mov.b32 %ssa_519_0, %ssa_509;
GPGPU-Sim PTX:  9 (potential) branch divergence @  PC=0x2fc0 (/cluster/home/jorgfi/vulkan-sim-root/vulkan-sim/../mesa-vulkan-sim/gpgpusimShaders/MESA_SHADER_CLOSEST_HIT_2.ptx:1126) @!%ssa_216 bra else_10;
GPGPU-Sim PTX:    immediate post dominator      @  PC=0x3b78 (/cluster/home/jorgfi/vulkan-sim-root/vulkan-sim/../mesa-vulkan-sim/gpgpusimShaders/MESA_SHADER_CLOSEST_HIT_2.ptx:2179) mov.b32 %ssa_493_0, %ssa_483;
GPGPU-Sim PTX: 10 (potential) branch divergence @  PC=0x30d8 (/cluster/home/jorgfi/vulkan-sim-root/vulkan-sim/../mesa-vulkan-sim/gpgpusimShaders/MESA_SHADER_CLOSEST_HIT_2.ptx:1226) @!%ssa_240 bra else_11;
GPGPU-Sim PTX:    immediate post dominator      @  PC=0x31b0 (/cluster/home/jorgfi/vulkan-sim-root/vulkan-sim/../mesa-vulkan-sim/gpgpusimShaders/MESA_SHADER_CLOSEST_HIT_2.ptx:1306) mov.b32 %ssa_428_0, %ssa_418;
GPGPU-Sim PTX: 11 (potential) branch divergence @  PC=0x3148 (/cluster/home/jorgfi/vulkan-sim-root/vulkan-sim/../mesa-vulkan-sim/gpgpusimShaders/MESA_SHADER_CLOSEST_HIT_2.ptx:1264) bra end_if_11;
GPGPU-Sim PTX:    immediate post dominator      @  PC=0x31b0 (/cluster/home/jorgfi/vulkan-sim-root/vulkan-sim/../mesa-vulkan-sim/gpgpusimShaders/MESA_SHADER_CLOSEST_HIT_2.ptx:1306) mov.b32 %ssa_428_0, %ssa_418;
GPGPU-Sim PTX: 12 (potential) branch divergence @  PC=0x3328 (/cluster/home/jorgfi/vulkan-sim-root/vulkan-sim/../mesa-vulkan-sim/gpgpusimShaders/MESA_SHADER_CLOSEST_HIT_2.ptx:1438) @!%ssa_277 bra else_12;
GPGPU-Sim PTX:    immediate post dominator      @  PC=0x3330 (/cluster/home/jorgfi/vulkan-sim-root/vulkan-sim/../mesa-vulkan-sim/gpgpusimShaders/MESA_SHADER_CLOSEST_HIT_2.ptx:1442) bra loop_4_exit;
GPGPU-Sim PTX: 13 (potential) branch divergence @  PC=0x3330 (/cluster/home/jorgfi/vulkan-sim-root/vulkan-sim/../mesa-vulkan-sim/gpgpusimShaders/MESA_SHADER_CLOSEST_HIT_2.ptx:1442) bra loop_4_exit;
GPGPU-Sim PTX:    immediate post dominator      @  PC=0x3350 (/cluster/home/jorgfi/vulkan-sim-root/vulkan-sim/../mesa-vulkan-sim/gpgpusimShaders/MESA_SHADER_CLOSEST_HIT_2.ptx:1465) mul.f32 %ssa_278, %ssa_269, %ssa_103;// vec1 32 ssa_278 = fmul ssa_269, ssa_103
GPGPU-Sim PTX: 14 (potential) branch divergence @  PC=0x3338 (/cluster/home/jorgfi/vulkan-sim-root/vulkan-sim/../mesa-vulkan-sim/gpgpusimShaders/MESA_SHADER_CLOSEST_HIT_2.ptx:1446) bra end_if_12;
GPGPU-Sim PTX:    immediate post dominator      @  PC=0x3340 (/cluster/home/jorgfi/vulkan-sim-root/vulkan-sim/../mesa-vulkan-sim/gpgpusimShaders/MESA_SHADER_CLOSEST_HIT_2.ptx:1456) mov.s32 %ssa_248, %ssa_261; // vec1 32 ssa_248 = phi block_14: ssa_154, block_18: ssa_261
GPGPU-Sim PTX: 15 (potential) branch divergence @  PC=0x3348 (/cluster/home/jorgfi/vulkan-sim-root/vulkan-sim/../mesa-vulkan-sim/gpgpusimShaders/MESA_SHADER_CLOSEST_HIT_2.ptx:1459) bra loop_4;
GPGPU-Sim PTX:    immediate post dominator      @  PC=0x31f0 (/cluster/home/jorgfi/vulkan-sim-root/vulkan-sim/../mesa-vulkan-sim/gpgpusimShaders/MESA_SHADER_CLOSEST_HIT_2.ptx:1328) mov.f32 %ssa_249, 0F00ffffff; // vec1 32 ssa_249 = load_const (0x00ffffff /* 0.000000 */)
GPGPU-Sim PTX: 16 (potential) branch divergence @  PC=0x3450 (/cluster/home/jorgfi/vulkan-sim-root/vulkan-sim/../mesa-vulkan-sim/gpgpusimShaders/MESA_SHADER_CLOSEST_HIT_2.ptx:1538) bra end_if_10;
GPGPU-Sim PTX:    immediate post dominator      @  PC=0x3b78 (/cluster/home/jorgfi/vulkan-sim-root/vulkan-sim/../mesa-vulkan-sim/gpgpusimShaders/MESA_SHADER_CLOSEST_HIT_2.ptx:2179) mov.b32 %ssa_493_0, %ssa_483;
GPGPU-Sim PTX: 17 (potential) branch divergence @  PC=0x3460 (/cluster/home/jorgfi/vulkan-sim-root/vulkan-sim/../mesa-vulkan-sim/gpgpusimShaders/MESA_SHADER_CLOSEST_HIT_2.ptx:1549) @!%ssa_287 bra else_13;
GPGPU-Sim PTX:    immediate post dominator      @  PC=0x3ab0 (/cluster/home/jorgfi/vulkan-sim-root/vulkan-sim/../mesa-vulkan-sim/gpgpusimShaders/MESA_SHADER_CLOSEST_HIT_2.ptx:2114) mov.b32 %ssa_467_0, %ssa_457;
GPGPU-Sim PTX: 18 (potential) branch divergence @  PC=0x3668 (/cluster/home/jorgfi/vulkan-sim-root/vulkan-sim/../mesa-vulkan-sim/gpgpusimShaders/MESA_SHADER_CLOSEST_HIT_2.ptx:1740) @!%ssa_342 bra else_14;
GPGPU-Sim PTX:    immediate post dominator      @  PC=0x3710 (/cluster/home/jorgfi/vulkan-sim-root/vulkan-sim/../mesa-vulkan-sim/gpgpusimShaders/MESA_SHADER_CLOSEST_HIT_2.ptx:1806) setp.ge.s32 %ssa_358, %ssa_101, %ssa_5_bits; // vec1  1 ssa_358 = ige ssa_101, ssa_5
GPGPU-Sim PTX: 19 (potential) branch divergence @  PC=0x3700 (/cluster/home/jorgfi/vulkan-sim-root/vulkan-sim/../mesa-vulkan-sim/gpgpusimShaders/MESA_SHADER_CLOSEST_HIT_2.ptx:1793) bra end_if_14;
GPGPU-Sim PTX:    immediate post dominator      @  PC=0x3710 (/cluster/home/jorgfi/vulkan-sim-root/vulkan-sim/../mesa-vulkan-sim/gpgpusimShaders/MESA_SHADER_CLOSEST_HIT_2.ptx:1806) setp.ge.s32 %ssa_358, %ssa_101, %ssa_5_bits; // vec1  1 ssa_358 = ige ssa_101, ssa_5
GPGPU-Sim PTX: 20 (potential) branch divergence @  PC=0x3718 (/cluster/home/jorgfi/vulkan-sim-root/vulkan-sim/../mesa-vulkan-sim/gpgpusimShaders/MESA_SHADER_CLOSEST_HIT_2.ptx:1811) @!%ssa_358 bra else_15;
GPGPU-Sim PTX:    immediate post dominator      @  PC=0x37f0 (/cluster/home/jorgfi/vulkan-sim-root/vulkan-sim/../mesa-vulkan-sim/gpgpusimShaders/MESA_SHADER_CLOSEST_HIT_2.ptx:1891) mov.b32 %ssa_441_0, %ssa_431;
GPGPU-Sim PTX: 21 (potential) branch divergence @  PC=0x3788 (/cluster/home/jorgfi/vulkan-sim-root/vulkan-sim/../mesa-vulkan-sim/gpgpusimShaders/MESA_SHADER_CLOSEST_HIT_2.ptx:1849) bra end_if_15;
GPGPU-Sim PTX:    immediate post dominator      @  PC=0x37f0 (/cluster/home/jorgfi/vulkan-sim-root/vulkan-sim/../mesa-vulkan-sim/gpgpusimShaders/MESA_SHADER_CLOSEST_HIT_2.ptx:1891) mov.b32 %ssa_441_0, %ssa_431;
GPGPU-Sim PTX: 22 (potential) branch divergence @  PC=0x39c0 (/cluster/home/jorgfi/vulkan-sim-root/vulkan-sim/../mesa-vulkan-sim/gpgpusimShaders/MESA_SHADER_CLOSEST_HIT_2.ptx:2031) bra end_if_13;
GPGPU-Sim PTX:    immediate post dominator      @  PC=0x3ab0 (/cluster/home/jorgfi/vulkan-sim-root/vulkan-sim/../mesa-vulkan-sim/gpgpusimShaders/MESA_SHADER_CLOSEST_HIT_2.ptx:2114) mov.b32 %ssa_467_0, %ssa_457;
GPGPU-Sim PTX: ... end of reconvergence points for MESA_SHADER_CLOSEST_HIT_func2_main
Operand information not set. load_vulkan_descriptor %ssa_6, 0, 7, 7; // vec2 32 ssa_6 = intrinsic vulkan_resource_index (%ssa_5) (0, 7, 7) /* desc_set=0 */ /* binding=7 */ /* desc_type=SSBO */
Operand information not set. load_primitive_id %ssa_12;// vec1 32 ssa_12 = intrinsic load_primitive_id () ()
Operand information not set. load_vulkan_descriptor %ssa_15, 0, 5, 7; // vec2 32 ssa_15 = intrinsic vulkan_resource_index (%ssa_5) (0, 5, 7) /* desc_set=0 */ /* binding=5 */ /* desc_type=SSBO */
Operand information not set. load_vulkan_descriptor %ssa_30, 0, 4, 7; // vec2 32 ssa_30 = intrinsic vulkan_resource_index (%ssa_5) (0, 4, 7) /* desc_set=0 */ /* binding=4 */ /* desc_type=SSBO */
Operand information not set. load_vulkan_descriptor %ssa_93, 0, 6, 7; // vec2 32 ssa_93 = intrinsic vulkan_resource_index (%ssa_5) (0, 6, 7) /* desc_set=0 */ /* binding=6 */ /* desc_type=SSBO */
GPGPU-Sim PTX: ... done pre-decoding instructions for 'MESA_SHADER_CLOSEST_HIT_func2_main'.


GPGPU-Sim uArch: ERROR ** deadlock detected: last writeback core 6 @ gpu_sim_cycle 23169837 (+ gpu_tot_sim_cycle 4271267296) (530163 cycles ago)
GPGPU-Sim uArch: DEADLOCK  shader cores no longer committing instructions [core(# threads)]:
GPGPU-Sim uArch: DEADLOCK  Dumping pipeline state...
=================================================
shader 5 at cycle 0+23700000 (0 threads running)
=================================================

per warp functional simulation status:

Cache L1I_005:
MSHR contents

IF/ID       = bubble

ibuffer status:

per warp SIMT control-flow state:

-------------------------- Scoreboard
scoreboard contents (sid=5): 
-------------------------- OP COL

Operand Collector State:
   CU- 0:     <free>
   CU- 1:     <free>
   CU- 2:     <free>
   CU- 3:     <free>
   CU- 4:     <free>
   CU- 5:     <free>
   CU- 6:     <free>
   CU- 7:     <free>

  Arbiter State:
  requests:
    bank 0 : 
    bank 1 : 
    bank 2 : 
    bank 3 : 
    bank 4 : 
    bank 5 : 
    bank 6 : 
    bank 7 : 
    bank 8 : 
    bank 9 : 
    bank 10 : 
    bank 11 : 
    bank 12 : 
    bank 13 : 
    bank 14 : 
    bank 15 : 
  grants:
    bank 0 : <free>
    bank 1 : <free>
    bank 2 : <free>
    bank 3 : <free>
    bank 4 : <free>
    bank 5 : <free>
    bank 6 : <free>
    bank 7 : <free>
    bank 8 : <free>
    bank 9 : <free>
    bank 10 : <free>
    bank 11 : <free>
    bank 12 : <free>
    bank 13 : <free>
    bank 14 : <free>
    bank 15 : <free>

-------------------------- Pipe Regs
--- ID_OC_SP ---
ID_OC_SP : @0x55a441e06210
     bubble

     bubble

     bubble

     bubble


--- ID_OC_DP ---
ID_OC_DP : @0x55a441e06230

--- ID_OC_INT ---
ID_OC_INT : @0x55a441e06250
     bubble

     bubble

     bubble

     bubble


--- ID_OC_SFU ---
ID_OC_SFU : @0x55a441e06270
     bubble

     bubble

     bubble

     bubble


--- ID_OC_MEM ---
ID_OC_MEM : @0x55a441e06290
     bubble

     bubble

     bubble

     bubble


--- OC_EX_SP ---
OC_EX_SP : @0x55a441e062b0
     bubble

     bubble

     bubble

     bubble


--- OC_EX_DP ---
OC_EX_DP : @0x55a441e062d0

--- OC_EX_INT ---
OC_EX_INT : @0x55a441e062f0
     bubble

     bubble

     bubble

     bubble


--- OC_EX_SFU ---
OC_EX_SFU : @0x55a441e06310
     bubble

     bubble

     bubble

     bubble


--- OC_EX_MEM ---
OC_EX_MEM : @0x55a441e06330
     bubble

     bubble

     bubble

     bubble


--- EX_WB ---
EX_WB : @0x55a441e06350
     bubble

     bubble

     bubble

     bubble

     bubble

     bubble

     bubble

     bubble


--- ID_OC_TENSOR_CORE ---
ID_OC_TENSOR_CORE : @0x55a441e06370
     bubble

     bubble

     bubble

     bubble


--- OC_EX_TENSOR_CORE ---
OC_EX_TENSOR_CORE : @0x55a441e06390
     bubble

     bubble

     bubble

     bubble


--- ID_OC_RT ---
ID_OC_RT : @0x55a441e063b0
     bubble

     bubble

     bubble

     bubble


--- OC_EX_RT ---
OC_EX_RT : @0x55a441e063d0
     bubble

     bubble

     bubble

     bubble


-------------------------- Fu
SP  dispatch= bubble
---------------
SP  dispatch= bubble
---------------
SP  dispatch= bubble
---------------
SP  dispatch= bubble
---------------
INT  dispatch= bubble
---------------
INT  dispatch= bubble
---------------
INT  dispatch= bubble
---------------
INT  dispatch= bubble
---------------
SFU dispatch= bubble
---------------
SFU dispatch= bubble
---------------
SFU dispatch= bubble
---------------
SFU dispatch= bubble
---------------
TENSOR_CORE dispatch= bubble
---------------
TENSOR_CORE dispatch= bubble
---------------
TENSOR_CORE dispatch= bubble
---------------
TENSOR_CORE dispatch= bubble
---------------
LD/ST unit  = bubble
LD/ST wb    = bubble
Last LD/ST writeback @ 20939900 + 0 (gpu_sim_cycle+gpu_tot_sim_cycle)
Pending register writes:
Cache L1C_005:
MSHR contents

L1T_005 (texture cache) state:
fragment fifo entries  = 0 / 512
reorder buffer entries = 0 / 128
request fifo entries   = 0 / 8
Cache L1D_005:
MSHR contents

LD/ST response FIFO (occupancy = 0):
---------------
RT_CORE dispatch (0 warps)
0 uid:13660331 bubble
RT Core Warps: (0 warps)
Cache L0Complet:
MSHR contents

RT response FIFO (occupancy = 0):

RAY_COHERENCE_ENGINE: (inactive)
Rays (0/0):
Scheduled Packets (0):
*[0] (1)	
[1] (1)	
[2] (1)	
[3] (1)	
[4] (1)	
[5] (1)	
[6] (1)	
[7] (1)	
[8] (1)	
[9] (1)	
[10] (1)	
[11] (1)	
[12] (1)	
[13] (1)	
[14] (1)	
[15] (1)	
Outstanding requests:
---------------
-------------------------- other:
EX/WB sched[0]= 00000000000000000000000000000000000000000000000000000000000000000000000000000000000000000000000000000000000000000000000000000000000000000000000000000000000000000000000000000000000000000000000000000000000000000000000000000000000000000000000000000000000000000000000000000000000000000000000000000000000000000000000000000000000000000000000000000000000000000000000000000000000000000000000000000000000000000000000000000000000000000000000000000000000000000000000000000000000000000000000000000000000000000000000000000000
EX/WB sched[1]= 00000000000000000000000000000000000000000000000000000000000000000000000000000000000000000000000000000000000000000000000000000000000000000000000000000000000000000000000000000000000000000000000000000000000000000000000000000000000000000000000000000000000000000000000000000000000000000000000000000000000000000000000000000000000000000000000000000000000000000000000000000000000000000000000000000000000000000000000000000000000000000000000000000000000000000000000000000000000000000000000000000000000000000000000000000000
EX/WB sched[2]= 00000000000000000000000000000000000000000000000000000000000000000000000000000000000000000000000000000000000000000000000000000000000000000000000000000000000000000000000000000000000000000000000000000000000000000000000000000000000000000000000000000000000000000000000000000000000000000000000000000000000000000000000000000000000000000000000000000000000000000000000000000000000000000000000000000000000000000000000000000000000000000000000000000000000000000000000000000000000000000000000000000000000000000000000000000000
EX/WB sched[3]= 00000000000000000000000000000000000000000000000000000000000000000000000000000000000000000000000000000000000000000000000000000000000000000000000000000000000000000000000000000000000000000000000000000000000000000000000000000000000000000000000000000000000000000000000000000000000000000000000000000000000000000000000000000000000000000000000000000000000000000000000000000000000000000000000000000000000000000000000000000000000000000000000000000000000000000000000000000000000000000000000000000000000000000000000000000000
EX/WB sched[4]= 00000000000000000000000000000000000000000000000000000000000000000000000000000000000000000000000000000000000000000000000000000000000000000000000000000000000000000000000000000000000000000000000000000000000000000000000000000000000000000000000000000000000000000000000000000000000000000000000000000000000000000000000000000000000000000000000000000000000000000000000000000000000000000000000000000000000000000000000000000000000000000000000000000000000000000000000000000000000000000000000000000000000000000000000000000000
EX/WB sched[5]= 00000000000000000000000000000000000000000000000000000000000000000000000000000000000000000000000000000000000000000000000000000000000000000000000000000000000000000000000000000000000000000000000000000000000000000000000000000000000000000000000000000000000000000000000000000000000000000000000000000000000000000000000000000000000000000000000000000000000000000000000000000000000000000000000000000000000000000000000000000000000000000000000000000000000000000000000000000000000000000000000000000000000000000000000000000000
EX/WB sched[6]= 00000000000000000000000000000000000000000000000000000000000000000000000000000000000000000000000000000000000000000000000000000000000000000000000000000000000000000000000000000000000000000000000000000000000000000000000000000000000000000000000000000000000000000000000000000000000000000000000000000000000000000000000000000000000000000000000000000000000000000000000000000000000000000000000000000000000000000000000000000000000000000000000000000000000000000000000000000000000000000000000000000000000000000000000000000000
EX/WB sched[7]= 00000000000000000000000000000000000000000000000000000000000000000000000000000000000000000000000000000000000000000000000000000000000000000000000000000000000000000000000000000000000000000000000000000000000000000000000000000000000000000000000000000000000000000000000000000000000000000000000000000000000000000000000000000000000000000000000000000000000000000000000000000000000000000000000000000000000000000000000000000000000000000000000000000000000000000000000000000000000000000000000000000000000000000000000000000000
EX/WB      = EX_WB : @0x55a441e06350
     bubble

     bubble

     bubble

     bubble

     bubble

     bubble

     bubble

     bubble


Last EX/WB writeback @ 20940184 + 0 (gpu_sim_cycle+gpu_tot_sim_cycle)
Active Threads : 
Cluster 5 pipeline state
Response FIFO (occupancy = 0):
6(32) =================================================
shader 6 at cycle 0+23700000 (32 threads running)
=================================================

per warp functional simulation status:
w02 npc: 0x1bd8, done: s  : 0 i:3 s:0 a:0 (done: 0000,0000,0000,0000,0000,0000,0000,0000)  active=11111111111111111111111111111111 last fetched @ 23169832

Cache L1I_006:
MSHR contents

IF/ID       = bubble

ibuffer status:
  ibuffer[ 2] :  PC=0x1bd8 (/cluster/home/jorgfi/vulkan-sim-root/vulkan-sim/../mesa-vulkan-sim/gpgpusimShaders/MESA_SHADER_RAYGEN_0.ptx:2695) intersection_exit.pred %intersections_exit_0, %intersection_counter_0, %traversal_finished_0; PC=0x1be0 (/cluster/home/jorgfi/vulkan-sim-root/vulkan-sim/../mesa-vulkan-sim/gpgpusimShaders/MESA_SHADER_RAYGEN_0.ptx:2696) @%intersections_exit_0 bra exit_intersection_label_0;

-------------------------- Scoreboard
scoreboard contents (sid=6): 
  wid =  2: 890 
-------------------------- OP COL

Operand Collector State:
   CU- 0:     <free>
   CU- 1:     <free>
   CU- 2:     <free>
   CU- 3:     <free>
   CU- 4:     <free>
   CU- 5:     <free>
   CU- 6:     <free>
   CU- 7:     <free>

  Arbiter State:
  requests:
    bank 0 : 
    bank 1 : 
    bank 2 : 
    bank 3 : 
    bank 4 : 
    bank 5 : 
    bank 6 : 
    bank 7 : 
    bank 8 : 
    bank 9 : 
    bank 10 : 
    bank 11 : 
    bank 12 : 
    bank 13 : 
    bank 14 : 
    bank 15 : 
  grants:
    bank 0 : <free>
    bank 1 : <free>
    bank 2 : <free>
    bank 3 : <free>
    bank 4 : <free>
    bank 5 : <free>
    bank 6 : <free>
    bank 7 : <free>
    bank 8 : <free>
    bank 9 : <free>
    bank 10 : <free>
    bank 11 : <free>
    bank 12 : <free>
    bank 13 : <free>
    bank 14 : <free>
    bank 15 : <free>

-------------------------- Pipe Regs
--- ID_OC_RT ---
ID_OC_RT : @0x55a4422b13d0
     bubble

     bubble

     bubble

     bubble


--- OC_EX_RT ---
OC_EX_RT : @0x55a4422b13f0
     bubble

     bubble

     bubble

     bubble


-------------------------- Fu
RT_CORE dispatch (1 warps)
0 uid:13903326 bubble
RT Core Warps: (1 warps)
1 uid:13903326 0x1bc8 w02[00100000001000000000010000100011]: MESA_SHADER_RAYGEN_func0_main PC=0x1bc8 (/cluster/home/jorgfi/vulkan-sim-root/vulkan-sim/../mesa-vulkan-sim/gpgpusimShaders/MESA_SHADER_RAYGEN_0.ptx:2689) trace_ray %ssa_706, %ssa_2, %ssa_11, %ssa_2, %ssa_2, %ssa_2, %ssa_707_0, %ssa_707_1, %ssa_707_2, %ssa_10, %ssa_708_0, %ssa_708_1, %ssa_708_2, %ssa_9, %traversal_finished_0; // intrinsic trace_ray (%ssa_706, %ssa_2, %ssa_11, %ssa_2, %ssa_2, %ssa_2, %ssa_707, %ssa_10, %ssa_708, %ssa_9, %ssa_542) ()
Latency Delay: [    0    0    0    0    0    0    0    0    0    0    0    0    0    0    0    0    0    0    0    0    0    0    0    0    0    0    0    0    0    0    0    0]
Thread Length: [    0    0    0    0    0    0    0    0    0    0    0    0    0    0    0    0    0    0    0    0    0    0    0    0    0    0  698    0    0    0    0    0]
Cache L0Complet:
MSHR contents

RT response FIFO (occupancy = 0):

RAY_COHERENCE_ENGINE: (inactive)
Rays (0/0):
Scheduled Packets (0):
*[0] (1)	
[1] (1)	
[2] (1)	
[3] (1)	
[4] (1)	
[5] (1)	
[6] (1)	
[7] (1)	
[8] (1)	
[9] (1)	
[10] (1)	
[11] (1)	
[12] (1)	
[13] (1)	
[14] (1)	
[15] (1)	
Outstanding requests:
---------------

GPGPU-Sim uArch DEADLOCK:  memory partition 0 busy

Re-run the simulator in gdb and use debug routines in .gdbinit to debug this
