Running from: /cluster/home/jorgfi
Job: vulkan_sim  ID: 23038245  Nodes: idun-07-01


ENVIRONMENT INFO
---------------------------
	- OS:	 Ubuntu 20.04.6 LTS
	- CPU:	 Intel(R) Xeon(R) Gold 6148 CPU @ 2.40GHz
	- RAM:	 753Gi

Sat Sep  6 13:18:47 2025       
+-----------------------------------------------------------------------------------------+
| NVIDIA-SMI 575.57.08              Driver Version: 575.57.08      CUDA Version: 12.9     |
|-----------------------------------------+------------------------+----------------------+
| GPU  Name                 Persistence-M | Bus-Id          Disp.A | Volatile Uncorr. ECC |
| Fan  Temp   Perf          Pwr:Usage/Cap |           Memory-Usage | GPU-Util  Compute M. |
|                                         |                        |               MIG M. |
|=========================================+========================+======================|
|   0  Tesla V100-PCIE-32GB           On  |   00000000:12:00.0 Off |                    0 |
| N/A   26C    P0             23W /  250W |       0MiB /  32768MiB |      0%      Default |
|                                         |                        |                  N/A |
+-----------------------------------------+------------------------+----------------------+
                                                                                         
+-----------------------------------------------------------------------------------------+
| Processes:                                                                              |
|  GPU   GI   CI              PID   Type   Process name                        GPU Memory |
|        ID   ID                                                               Usage      |
|=========================================================================================|
|  No running processes found                                                             |
+-----------------------------------------------------------------------------------------+


SIMULATION SETUP
---------------------
	- Device config:	 /cluster/home/jorgfi/vulkan-sim-root/vulkan-sim/configs/tested-cfgs/CUSTOM
	- gpgpu_ptx_sim_mode:	 0
	- Scene:		 12
	- Dimensions:
		- Width:	 128
		- Height:	 128
	- Samples:		 2
	- Shader type:		 5




STARTING SIMULATION...
--------------------------------------------------------



GPGPU-Sim version 4.0.0 - Vulkan-Sim version 2.0.0 (build gpgpu-sim_git-commit-dc742faa6e5fcfaf415fe51eab71dcf9345388fd-modified_585.0) configured with GPUWattch.

----------------------------------------------------------------------------
INFO - If you only care about PTX execution, ignore this message. GPGPU-Sim supports PTX execution in modern CUDA.
If you want to run PTXPLUS (sm_1x SASS) with a modern card configuration - set the envronment variable
$PTXAS_CUDA_INSTALL_PATH to point a CUDA version compabible with your card configurations (i.e. 8+ for PASCAL, 9+ for VOLTA etc..)
For example: "export $PTXAS_CUDA_INSTALL_PATH=/usr/local/cuda-9.1"

The following text describes why:
If you are using PTXPLUS, only sm_1x is supported and it requires that the app and simulator binaries are compiled in CUDA 4.2 or less.
The simulator requires it since CUDA headers desribe struct sizes in the exec which change from gen to gen.
The apps require 4.2 because new versions of CUDA tools have dropped parsing support for generating sm_1x
When running using modern config (i.e. volta) and PTXPLUS with CUDA 4.2, the $PTXAS_CUDA_INSTALL_PATH env variable is required to get proper register usage
(and hence occupancy) using a version of CUDA that knows the register usage on the real card.

----------------------------------------------------------------------------
setup_environment succeeded
MESA: Linking to LLVM resource bind packing.
Vulkan SDK Header Version: 296

Vulkan Instance Extensions: 
- VK_KHR_device_group_creation (0.0.1)
- VK_KHR_external_fence_capabilities (0.0.1)
- VK_KHR_external_memory_capabilities (0.0.1)
- VK_KHR_external_semaphore_capabilities (0.0.1)
- VK_KHR_get_physical_device_properties2 (0.0.2)
- VK_KHR_get_surface_capabilities2 (0.0.1)
- VK_KHR_surface (0.0.25)
- VK_KHR_surface_protected_capabilities (0.0.1)
- VK_KHR_xcb_surface (0.0.6)
- VK_KHR_xlib_surface (0.0.6)
- VK_EXT_debug_report (0.0.10)
- VK_EXT_debug_utils (0.0.2)
- VK_KHR_portability_enumeration (0.0.1)
- VK_LUNARG_direct_driver_loading (0.0.1)

Vulkan Instance Layers: 
- VK_LAYER_NV_optimus (1.4.303) : NVIDIA Optimus layer
- VK_LAYER_NV_present (1.4.303) : NVIDIA GR2608 layer

Vulkan Devices: 
- [0] UnknownVendor 'llvmpipe (LLVM 10.0.0, 256 bits)' (CPU: vulkan 1.3.254, driver llvmpipe Mesa 23.2.0-devel (git-b8f3e3980e) (LLVM 10.0.0) - 0.0.1)

Setting Device [0]:
Getting ray tracing pipeline properties...
- loading '../../../Scenes/Blender_2.83/Cube_042.obj'... (216 vertices, 220 unique vertices, 1 materials) 0.0635717s
- loading '../../../Scenes/Blender_2.83/Cube_132.obj'... (156 vertices, 68 unique vertices, 1 materials) 0.0536788s
- loading '../../../Scenes/Blender_2.83/BezierCurve_009.obj'... (0 vertices, 0 unique vertices, 1 materials) 0.0705585s
- loading '../../../Scenes/Blender_2.83/Cube_076.obj'... (3213 vertices, 2075 unique vertices, 1 materials) 0.0733971s
- loading '../../../Scenes/Blender_2.83/Cube_078.obj'... (864 vertices, 381 unique vertices, 1 materials) 0.0589461s
- loading '../../../Scenes/Blender_2.83/light_X_warning_006.obj'... (3558 vertices, 1400 unique vertices, 4 materials) 0.048885s
- loading '../../../Scenes/Blender_2.83/Cylinder_030.obj'... (288 vertices, 360 unique vertices, 1 materials) 0.0514142s
- loading '../../../Scenes/Blender_2.83/Cube_065.obj'... (6477 vertices, 8224 unique vertices, 1 materials) 0.11615s
- loading '../../../Scenes/Blender_2.83/Power_Pole_ID.obj'... (438 vertices, 438 unique vertices, 1 materials) 0.0702722s
- loading '../../../Scenes/Blender_2.83/Text_001.obj'... (28068 vertices, 9509 unique vertices, 1 materials) 0.117283s
- loading '../../../Scenes/Blender_2.83/_Grill_017.obj'... (2862 vertices, 3596 unique vertices, 1 materials) 0.0703713s
- loading '../../../Scenes/Blender_2.83/Cube_109.obj'... (6546 vertices, 2179 unique vertices, 1 materials) 0.0474668s
- loading '../../../Scenes/Blender_2.83/Cube_055.obj'... (2124 vertices, 856 unique vertices, 1 materials) 0.0481849s
- loading '../../../Scenes/Blender_2.83/Cylinder_072.obj'... (1482 vertices, 554 unique vertices, 1 materials) 0.124189s
- loading '../../../Scenes/Blender_2.83/boatback_008.obj'... (3078 vertices, 2360 unique vertices, 1 materials) 0.118069s
- loading '../../../Scenes/Blender_2.83/Cube_082.obj'... (864 vertices, 381 unique vertices, 1 materials) 0.0385172s
- loading '../../../Scenes/Blender_2.83/Power_Meter_1_007.obj'... (6144 vertices, 2370 unique vertices, 7 materials) 0.0562236s
- loading '../../../Scenes/Blender_2.83/boxes_001.obj'... (318 vertices, 315 unique vertices, 1 materials) 0.0838645s
- loading '../../../Scenes/Blender_2.83/Charlie_001.obj'... (31032 vertices, 15032 unique vertices, 1 materials) 0.125138s
- loading '../../../Scenes/Blender_2.83/Cylinder_011.obj'... (852 vertices, 908 unique vertices, 1 materials) 0.0798931s
- loading '../../../Scenes/Blender_2.83/Text_002.obj'... (15288 vertices, 5143 unique vertices, 1 materials) 0.079212s
- loading '../../../Scenes/Blender_2.83/Cylinder_010.obj'... (852 vertices, 908 unique vertices, 1 materials) 0.0493572s
- loading '../../../Scenes/Blender_2.83/Rusty_Mounted_Box_1_001.obj'... (2184 vertices, 2204 unique vertices, 6 materials) 0.0409591s
- loading '../../../Scenes/Blender_2.83/Cylinder_006.obj'... (804 vertices, 844 unique vertices, 1 materials) 0.0463979s
- loading '../../../Scenes/Blender_2.83/Cube_006.obj'... (318 vertices, 306 unique vertices, 1 materials) 0.0840607s
- loading '../../../Scenes/Blender_2.83/Cube_067.obj'... (6477 vertices, 8222 unique vertices, 1 materials) 0.0936131s
- loading '../../../Scenes/Blender_2.83/Power_Meter_1_016.obj'... (6144 vertices, 2422 unique vertices, 7 materials) 0.0552303s
- loading '../../../Scenes/Blender_2.83/Cube_004.obj'... (1242 vertices, 1467 unique vertices, 1 materials) 0.0531502s
- loading '../../../Scenes/Blender_2.83/BezierCurve_014.obj'... (11808 vertices, 2132 unique vertices, 1 materials) 0.115585s
- loading '../../../Scenes/Blender_2.83/Cube_128.obj'... (156 vertices, 68 unique vertices, 1 materials) 0.0303558s
- loading '../../../Scenes/Blender_2.83/Cube_028.obj'... (2688 vertices, 2678 unique vertices, 1 materials) 0.0617827s
- loading '../../../Scenes/Blender_2.83/Cube_080.obj'... (864 vertices, 381 unique vertices, 1 materials) 0.0686166s
- loading '../../../Scenes/Blender_2.83/boxes_004.obj'... (48 vertices, 20 unique vertices, 1 materials) 0.0374004s
- loading '../../../Scenes/Blender_2.83/BezierCurve_013.obj'... (11808 vertices, 2132 unique vertices, 1 materials) 0.11019s
- loading '../../../Scenes/Blender_2.83/20191230_134947_060.obj'... (5922 vertices, 5730 unique vertices, 1 materials) 0.0952544s
- loading '../../../Scenes/Blender_2.83/Cylinder_012.obj'... (852 vertices, 908 unique vertices, 1 materials) 0.0481076s
- loading '../../../Scenes/Blender_2.83/boatback_007.obj'... (708 vertices, 694 unique vertices, 1 materials) 0.0915073s
- loading '../../../Scenes/Blender_2.83/boatback_013.obj'... (165 vertices, 117 unique vertices, 1 materials) 0.0253133s
- loading '../../../Scenes/Blender_2.83/20191230_134947_011.obj'... (21504 vertices, 21200 unique vertices, 1 materials) 0.157937s
- loading '../../../Scenes/Blender_2.83/Cylinder_021.obj'... (5022 vertices, 5331 unique vertices, 1 materials) 0.0526602s
- loading '../../../Scenes/Blender_2.83/Cube_059.obj'... (11994 vertices, 14468 unique vertices, 2 materials) 0.108668s
- loading '../../../Scenes/Blender_2.83/Cube_074.obj'... (21156 vertices, 26956 unique vertices, 1 materials) 0.12612s
- loading '../../../Scenes/Blender_2.83/BezierCurve_007.obj'... (6624 vertices, 1196 unique vertices, 1 materials) 0.116319s
- loading '../../../Scenes/Blender_2.83/Power_Meter_1_004.obj'... (6144 vertices, 2370 unique vertices, 7 materials) 0.064018s
- loading '../../../Scenes/Blender_2.83/Steady_Breeze_Chimney_Steam.obj'... (12 vertices, 4 unique vertices, 1 materials) 0.0555447s
- loading '../../../Scenes/Blender_2.83/Power_Meter_1_017.obj'... (6144 vertices, 2413 unique vertices, 7 materials) 0.081627s
- loading '../../../Scenes/Blender_2.83/Boss_001.obj'... (89253 vertices, 42613 unique vertices, 1 materials) 0.298507s
- loading '../../../Scenes/Blender_2.83/Power_Meter_1_009.obj'... (6144 vertices, 2380 unique vertices, 7 materials) 0.0627881s
- loading '../../../Scenes/Blender_2.83/Cylinder_036.obj'... (1482 vertices, 554 unique vertices, 1 materials) 0.0914664s
- loading '../../../Scenes/Blender_2.83/Cube_071.obj'... (6477 vertices, 8224 unique vertices, 1 materials) 0.0913866s
- loading '../../../Scenes/Blender_2.83/Cube_034.obj'... (3213 vertices, 2075 unique vertices, 1 materials) 0.0627826s
- loading '../../../Scenes/Blender_2.83/boatback_004.obj'... (708 vertices, 692 unique vertices, 1 materials) 0.0422106s
- loading '../../../Scenes/Blender_2.83/Text_005.obj'... (228 vertices, 84 unique vertices, 1 materials) 0.0582511s
- loading '../../../Scenes/Blender_2.83/_Steel_Cover_001.obj'... (948 vertices, 808 unique vertices, 1 materials) 0.0696187s
- loading '../../../Scenes/Blender_2.83/Cube_017.obj'... (216 vertices, 220 unique vertices, 1 materials) 0.0418343s
- loading '../../../Scenes/Blender_2.83/BezierCurve_002.obj'... (24696 vertices, 9777 unique vertices, 2 materials) 0.0984934s
- loading '../../../Scenes/Blender_2.83/Cube_5597.obj'... (24264 vertices, 8088 unique vertices, 1 materials) 0.0795869s
- loading '../../../Scenes/Blender_2.83/Cylinder_017.obj'... (852 vertices, 900 unique vertices, 1 materials) 0.0480155s
- loading '../../../Scenes/Blender_2.83/cables_repeating.obj'... (9693 vertices, 7052 unique vertices, 1 materials) 0.0758489s
- loading '../../../Scenes/Blender_2.83/Wall_Electrical.obj'... (22710 vertices, 7533 unique vertices, 2 materials) 0.0910694s
- loading '../../../Scenes/Blender_2.83/boatback_015.obj'... (546 vertices, 718 unique vertices, 1 materials) 0.031974s
- loading '../../../Scenes/Blender_2.83/Cube_083.obj'... (864 vertices, 381 unique vertices, 1 materials) 0.027677s
- loading '../../../Scenes/Blender_2.83/Phone_Booth_001.obj'... (4008 vertices, 2894 unique vertices, 6 materials) 0.0659885s
- loading '../../../Scenes/Blender_2.83/boatback_024.obj'... (264 vertices, 298 unique vertices, 1 materials) 0.072098s
- loading '../../../Scenes/Blender_2.83/Cylinder_009.obj'... (852 vertices, 908 unique vertices, 1 materials) 0.0144734s
- loading '../../../Scenes/Blender_2.83/Cube_077.obj'... (3213 vertices, 2075 unique vertices, 1 materials) 0.0452358s
- loading '../../../Scenes/Blender_2.83/Cube_087.obj'... (864 vertices, 381 unique vertices, 1 materials) 0.0900557s
- loading '../../../Scenes/Blender_2.83/Cube_038.obj'... (4428 vertices, 2494 unique vertices, 3 materials) 0.0461114s
- loading '../../../Scenes/Blender_2.83/BezierCurve_016.obj'... (11304 vertices, 2041 unique vertices, 1 materials) 0.0627992s
- loading '../../../Scenes/Blender_2.83/Cube_126.obj'... (4428 vertices, 2494 unique vertices, 3 materials) 0.0269153s
- loading '../../../Scenes/Blender_2.83/20191230_134947_012.obj'... (21504 vertices, 21184 unique vertices, 1 materials) 0.085596s
- loading '../../../Scenes/Blender_2.83/Power_Meter_1_015.obj'... (6144 vertices, 2422 unique vertices, 7 materials) 0.0471372s
- loading '../../../Scenes/Blender_2.83/Cylinder_029.obj'... (360 vertices, 364 unique vertices, 3 materials) 0.0450705s
- loading '../../../Scenes/Blender_2.83/Cylinder_024.obj'... (3000 vertices, 2040 unique vertices, 3 materials) 0.037411s
- loading '../../../Scenes/Blender_2.83/Cube_054.obj'... (48 vertices, 44 unique vertices, 1 materials) 0.046104s
- loading '../../../Scenes/Blender_2.83/20191230_134947_015.obj'... (5922 vertices, 5727 unique vertices, 1 materials) 0.0711562s
- loading '../../../Scenes/Blender_2.83/_Grill_003.obj'... (5808 vertices, 7508 unique vertices, 1 materials) 0.0753919s
- loading '../../../Scenes/Blender_2.83/Power_Meter_1_022.obj'... (6144 vertices, 2372 unique vertices, 7 materials) 0.0510012s
- loading '../../../Scenes/Blender_2.83/Cube_104.obj'... (11994 vertices, 14472 unique vertices, 2 materials) 0.0737351s
- loading '../../../Scenes/Blender_2.83/BezierCurve_010.obj'... (22248 vertices, 4017 unique vertices, 1 materials) 0.0874353s
- loading '../../../Scenes/Blender_2.83/Cube_043.obj'... (216 vertices, 220 unique vertices, 1 materials) 0.037156s
- loading '../../../Scenes/Blender_2.83/Cube_002.obj'... (216 vertices, 220 unique vertices, 1 materials) 0.0570212s
- loading '../../../Scenes/Blender_2.83/Rusty_Mounted_Box_1_003.obj'... (2184 vertices, 2230 unique vertices, 6 materials) 0.0296053s
- loading '../../../Scenes/Blender_2.83/Cube_107.obj'... (24264 vertices, 8088 unique vertices, 1 materials) 0.0954118s
- loading '../../../Scenes/Blender_2.83/Cube_022.obj'... (2676 vertices, 2930 unique vertices, 1 materials) 0.0452277s
- loading '../../../Scenes/Blender_2.83/Cube_068.obj'... (6477 vertices, 8224 unique vertices, 1 materials) 0.0713924s
- loading '../../../Scenes/Blender_2.83/Pier.obj'... (900 vertices, 374 unique vertices, 1 materials) 0.0330984s
- loading '../../../Scenes/Blender_2.83/boatback_005.obj'... (708 vertices, 692 unique vertices, 1 materials) 0.0140887s
- loading '../../../Scenes/Blender_2.83/Cylinder_008.obj'... (996 vertices, 1132 unique vertices, 1 materials) 0.0220743s
- loading '../../../Scenes/Blender_2.83/Backpacks_002.obj'... (19938 vertices, 39600 unique vertices, 1 materials) 0.142197s
- loading '../../../Scenes/Blender_2.83/Power_Meter_1_012.obj'... (6144 vertices, 2376 unique vertices, 7 materials) 0.0458481s
- loading '../../../Scenes/Blender_2.83/Gondolier_002.obj'... (90228 vertices, 180036 unique vertices, 1 materials) 0.339083s
- loading '../../../Scenes/Blender_2.83/BezierCurve.obj'... (15624 vertices, 2821 unique vertices, 1 materials) 0.0957186s
- loading '../../../Scenes/Blender_2.83/Cube_095.obj'... (852 vertices, 978 unique vertices, 2 materials) 0.0700221s
- loading '../../../Scenes/Blender_2.83/Cube_036.obj'... (852 vertices, 978 unique vertices, 2 materials) 0.0343943s
- loading '../../../Scenes/Blender_2.83/Cylinder_018.obj'... (852 vertices, 900 unique vertices, 1 materials) 0.0247149s
- loading '../../../Scenes/Blender_2.83/Power_Meter_1_018.obj'... (6144 vertices, 2422 unique vertices, 7 materials) 0.0143859s
- loading '../../../Scenes/Blender_2.83/Cylinder_027.obj'... (1626 vertices, 901 unique vertices, 3 materials) 0.0269141s
- loading '../../../Scenes/Blender_2.83/_Steel_Cover_005.obj'... (948 vertices, 808 unique vertices, 1 materials) 0.028713s
- loading '../../../Scenes/Blender_2.83/BezierCurve_030.obj'... (2160 vertices, 724 unique vertices, 4 materials) 0.0274702s
- loading '../../../Scenes/Blender_2.83/boatback_010.obj'... (102 vertices, 90 unique vertices, 1 materials) 0.0450506s
- loading '../../../Scenes/Blender_2.83/Plane_006.obj'... (0 vertices, 0 unique vertices, 1 materials) 0.067098s
- loading '../../../Scenes/Blender_2.83/boatback_006.obj'... (708 vertices, 692 unique vertices, 1 materials) 0.0353448s
- loading '../../../Scenes/Blender_2.83/Cube_108.obj'... (852 vertices, 978 unique vertices, 2 materials) 0.0160105s
- loading '../../../Scenes/Blender_2.83/Cube_015.obj'... (2520 vertices, 1716 unique vertices, 2 materials) 0.0217518s
- loading '../../../Scenes/Blender_2.83/SWAT_001.obj'... (62826 vertices, 41928 unique vertices, 4 materials) 0.172915s
- loading '../../../Scenes/Blender_2.83/Cube_003.obj'... (1242 vertices, 1467 unique vertices, 1 materials) 0.0496234s
- loading '../../../Scenes/Blender_2.83/Cube_086.obj'... (864 vertices, 381 unique vertices, 1 materials) 0.0514584s
- loading '../../../Scenes/Blender_2.83/Backpacks_001.obj'... (25893 vertices, 51206 unique vertices, 1 materials) 0.147845s
- loading '../../../Scenes/Blender_2.83/SWAT_002.obj'... (62826 vertices, 41928 unique vertices, 4 materials) 0.191672s
- loading '../../../Scenes/Blender_2.83/Power_Meter_1_008.obj'... (6144 vertices, 2370 unique vertices, 7 materials) 0.0258267s
- loading '../../../Scenes/Blender_2.83/Cube_049.obj'... (156 vertices, 68 unique vertices, 1 materials) 0.0306787s
- loading '../../../Scenes/Blender_2.83/Wall_Electrical_002.obj'... (22710 vertices, 7532 unique vertices, 2 materials) 0.0892192s
- loading '../../../Scenes/Blender_2.83/Cube_106.obj'... (24264 vertices, 8088 unique vertices, 1 materials) 0.0745351s
- loading '../../../Scenes/Blender_2.83/20191230_134947_005.obj'... (5922 vertices, 5761 unique vertices, 1 materials) 0.0568543s
- loading '../../../Scenes/Blender_2.83/Rusty_Mounted_Box_1_004.obj'... (2184 vertices, 2192 unique vertices, 6 materials) 0.0688951s
- loading '../../../Scenes/Blender_2.83/Cube_081.obj'... (864 vertices, 381 unique vertices, 1 materials) 0.0394858s
- loading '../../../Scenes/Blender_2.83/BezierCurve_006.obj'... (6624 vertices, 1196 unique vertices, 1 materials) 0.0413584s
- loading '../../../Scenes/Blender_2.83/boatback_021.obj'... (546 vertices, 718 unique vertices, 1 materials) 0.0397204s
- loading '../../../Scenes/Blender_2.83/20191230_134947_029.obj'... (21504 vertices, 21188 unique vertices, 1 materials) 0.107615s
- loading '../../../Scenes/Blender_2.83/_Robot_Flyers_001.obj'... (1092 vertices, 364 unique vertices, 1 materials) 0.0469085s
- loading '../../../Scenes/Blender_2.83/light_X_warning_001.obj'... (3558 vertices, 1400 unique vertices, 4 materials) 0.0472838s
- loading '../../../Scenes/Blender_2.83/Cube_040.obj'... (216 vertices, 220 unique vertices, 1 materials) 0.0636388s
- loading '../../../Scenes/Blender_2.83/boatback_014.obj'... (546 vertices, 718 unique vertices, 1 materials) 0.0412383s
- loading '../../../Scenes/Blender_2.83/boatback_018.obj'... (1038 vertices, 966 unique vertices, 1 materials) 0.0595837s
- loading '../../../Scenes/Blender_2.83/Cylinder_2683.obj'... (35160 vertices, 11745 unique vertices, 1 materials) 0.101144s
- loading '../../../Scenes/Blender_2.83/BezierCurve_008.obj'... (6624 vertices, 1196 unique vertices, 1 materials) 0.0679669s
- loading '../../../Scenes/Blender_2.83/Cube_131.obj'... (156 vertices, 68 unique vertices, 1 materials) 0.0304767s
- loading '../../../Scenes/Blender_2.83/Cube_018.obj'... (19296 vertices, 10848 unique vertices, 1 materials) 0.0991153s
- loading '../../../Scenes/Blender_2.83/Cylinder_007.obj'... (804 vertices, 844 unique vertices, 1 materials) 0.0676951s
- loading '../../../Scenes/Blender_2.83/Cube_019.obj'... (19296 vertices, 10848 unique vertices, 1 materials) 0.0917729s
- loading '../../../Scenes/Blender_2.83/Cube_014.obj'... (2232 vertices, 1416 unique vertices, 2 materials) 0.0362012s
- loading '../../../Scenes/Blender_2.83/Cube_011.obj'... (216 vertices, 220 unique vertices, 1 materials) 0.0669667s
- loading '../../../Scenes/Blender_2.83/Power_Meter_1_011.obj'... (6144 vertices, 2376 unique vertices, 7 materials) 0.0441325s
- loading '../../../Scenes/Blender_2.83/Cube_012.obj'... (2232 vertices, 1416 unique vertices, 2 materials) 0.0954616s
- loading '../../../Scenes/Blender_2.83/Cylinder_073.obj'... (1482 vertices, 554 unique vertices, 1 materials) 0.0574934s
- loading '../../../Scenes/Blender_2.83/BezierCurve_042.obj'... (294336 vertices, 54197 unique vertices, 1 materials) 0.853225s
- loading '../../../Scenes/Blender_2.83/BezierCurve_004.obj'... (8712 vertices, 1573 unique vertices, 1 materials) 0.085897s
- loading '../../../Scenes/Blender_2.83/Cube_098.obj'... (24264 vertices, 8088 unique vertices, 1 materials) 0.0600058s
- loading '../../../Scenes/Blender_2.83/Cylinder_002.obj'... (804 vertices, 850 unique vertices, 1 materials) 0.0466167s
- loading '../../../Scenes/Blender_2.83/20191230_134947_009.obj'... (5922 vertices, 5756 unique vertices, 1 materials) 0.0682845s
- loading '../../../Scenes/Blender_2.83/Armature_007.obj'... (0 vertices, 0 unique vertices, 1 materials) 0.0858365s
- loading '../../../Scenes/Blender_2.83/Cube_048.obj'... (216 vertices, 220 unique vertices, 1 materials) 0.0249206s
- loading '../../../Scenes/Blender_2.83/CyberSean.obj'... (90072 vertices, 50202 unique vertices, 1 materials) 0.273364s
- loading '../../../Scenes/Blender_2.83/Cube_008.obj'... (2700 vertices, 1815 unique vertices, 2 materials) 0.0226249s
- loading '../../../Scenes/Blender_2.83/Power_Meter_3.obj'... (5490 vertices, 1896 unique vertices, 6 materials) 0.0261517s
- loading '../../../Scenes/Blender_2.83/Gondolier_001.obj'... (90228 vertices, 40813 unique vertices, 1 materials) 0.252599s
- loading '../../../Scenes/Blender_2.83/KaitlinSarong_002.obj'... (79602 vertices, 41748 unique vertices, 1 materials) 0.222924s
- loading '../../../Scenes/Blender_2.83/Cube_027.obj'... (7200 vertices, 2634 unique vertices, 1 materials) 0.050232s
- loading '../../../Scenes/Blender_2.83/Cylinder_004.obj'... (804 vertices, 844 unique vertices, 1 materials) 0.035855s
- loading '../../../Scenes/Blender_2.83/boatback_003.obj'... (708 vertices, 692 unique vertices, 1 materials) 0.0166082s
- loading '../../../Scenes/Blender_2.83/Text.obj'... (7068 vertices, 2398 unique vertices, 1 materials) 0.0242435s
- loading '../../../Scenes/Blender_2.83/Cube_110.obj'... (6720 vertices, 4774 unique vertices, 3 materials) 0.0738221s
- loading '../../../Scenes/Blender_2.83/Armature_006.obj'... (0 vertices, 0 unique vertices, 1 materials) 0.0393016s
- loading '../../../Scenes/Blender_2.83/Power_Meter_1_006.obj'... (6144 vertices, 2370 unique vertices, 7 materials) 0.0401663s
- loading '../../../Scenes/Blender_2.83/Cube_130.obj'... (156 vertices, 68 unique vertices, 1 materials) 0.0241919s
- loading '../../../Scenes/Blender_2.83/Cube_030.obj'... (360 vertices, 237 unique vertices, 1 materials) 0.0434437s
- loading '../../../Scenes/Blender_2.83/Cylinder_020.obj'... (32874 vertices, 29340 unique vertices, 1 materials) 0.100391s
- loading '../../../Scenes/Blender_2.83/Cube_013.obj'... (2232 vertices, 1416 unique vertices, 2 materials) 0.0757943s
- loading '../../../Scenes/Blender_2.83/Power_Meter_1_021.obj'... (6144 vertices, 2372 unique vertices, 7 materials) 0.0204941s
- loading '../../../Scenes/Blender_2.83/Cube_123.obj'... (156 vertices, 68 unique vertices, 1 materials) 0.0346943s
- loading '../../../Scenes/Blender_2.83/Armature_003.obj'... (0 vertices, 0 unique vertices, 1 materials) 0.0592438s
- loading '../../../Scenes/Blender_2.83/Cube_039.obj'... (8316 vertices, 6454 unique vertices, 2 materials) 0.102983s
- loading '../../../Scenes/Blender_2.83/20191230_134947_013.obj'... (21504 vertices, 21186 unique vertices, 1 materials) 0.115189s
- loading '../../../Scenes/Blender_2.83/Cube_035.obj'... (2124 vertices, 856 unique vertices, 1 materials) 0.0334985s
- loading '../../../Scenes/Blender_2.83/Power_Meter_1_002.obj'... (27540 vertices, 9558 unique vertices, 3 materials) 0.0560082s
- loading '../../../Scenes/Blender_2.83/Cube_026.obj'... (9762 vertices, 9196 unique vertices, 4 materials) 0.0343426s
- loading '../../../Scenes/Blender_2.83/BezierCurve_003.obj'... (8784 vertices, 1586 unique vertices, 1 materials) 0.0722244s
- loading '../../../Scenes/Blender_2.83/Cylinder.obj'... (852 vertices, 900 unique vertices, 1 materials) 0.027558s
- loading '../../../Scenes/Blender_2.83/Power_Meter_2.obj'... (97656 vertices, 32903 unique vertices, 5 materials) 0.130008s
- loading '../../../Scenes/Blender_2.83/Power_Meter_1_010.obj'... (6144 vertices, 2376 unique vertices, 7 materials) 0.0424794s
- loading '../../../Scenes/Blender_2.83/BezierCurve_001.obj'... (15624 vertices, 2821 unique vertices, 1 materials) 0.0889492s
- loading '../../../Scenes/Blender_2.83/Cube_021.obj'... (3372 vertices, 5159 unique vertices, 1 materials) 0.0400574s
- loading '../../../Scenes/Blender_2.83/Cube_100.obj'... (24264 vertices, 8088 unique vertices, 1 materials) 0.0880456s
- loading '../../../Scenes/Blender_2.83/Armature_005.obj'... (0 vertices, 0 unique vertices, 1 materials) 0.0351676s
- loading '../../../Scenes/Blender_2.83/BezierCurve_041.obj'... (288 vertices, 52 unique vertices, 1 materials) 0.0471903s
- loading '../../../Scenes/Blender_2.83/boxes_005.obj'... (48 vertices, 20 unique vertices, 1 materials) 0.042142s
- loading '../../../Scenes/Blender_2.83/light_X_warning_003.obj'... (3558 vertices, 1400 unique vertices, 4 materials) 0.0281771s
- loading '../../../Scenes/Blender_2.83/Cube_009.obj'... (2685 vertices, 1766 unique vertices, 1 materials) 0.0575874s
- loading '../../../Scenes/Blender_2.83/light_X_warning_002.obj'... (3558 vertices, 1400 unique vertices, 4 materials) 0.0383341s
- loading '../../../Scenes/Blender_2.83/boxes_006.obj'... (318 vertices, 311 unique vertices, 1 materials) 0.00653305s
- loading '../../../Scenes/Blender_2.83/Cylinder_040.obj'... (8856 vertices, 3126 unique vertices, 5 materials) 0.0430178s
- loading '../../../Scenes/Blender_2.83/20191230_134947_002.obj'... (21504 vertices, 21214 unique vertices, 1 materials) 0.120184s
- loading '../../../Scenes/Blender_2.83/Power_Meter_1_014.obj'... (6144 vertices, 2422 unique vertices, 7 materials) 0.0407079s
- loading '../../../Scenes/Blender_2.83/Power_Meter_1_019.obj'... (6144 vertices, 2420 unique vertices, 7 materials) 0.021116s
- loading '../../../Scenes/Blender_2.83/Cube_023.obj'... (228 vertices, 220 unique vertices, 1 materials) 0.0381335s
- loading '../../../Scenes/Blender_2.83/Cube_1320.obj'... (1836 vertices, 612 unique vertices, 1 materials) 0.0506943s
- loading '../../../Scenes/Blender_2.83/boxes_003.obj'... (48 vertices, 20 unique vertices, 1 materials) 0.0366957s
- loading '../../../Scenes/Blender_2.83/Cylinder_015.obj'... (852 vertices, 908 unique vertices, 1 materials) 0.0235993s
- loading '../../../Scenes/Blender_2.83/Cube_075.obj'... (360 vertices, 237 unique vertices, 1 materials) 0.0421163s
- loading '../../../Scenes/Blender_2.83/Cube_063.obj'... (900 vertices, 374 unique vertices, 1 materials) 0.0395555s
- loading '../../../Scenes/Blender_2.83/Cylinder_028.obj'... (3588 vertices, 2347 unique vertices, 3 materials) 0.0246013s
- loading '../../../Scenes/Blender_2.83/Cube_033.obj'... (2232 vertices, 1416 unique vertices, 2 materials) 0.0248487s
- loading '../../../Scenes/Blender_2.83/Cube_085.obj'... (864 vertices, 381 unique vertices, 1 materials) 0.0339874s
- loading '../../../Scenes/Blender_2.83/Cylinder_042.obj'... (828 vertices, 620 unique vertices, 1 materials) 0.0355404s
- loading '../../../Scenes/Blender_2.83/Cube_111.obj'... (864 vertices, 381 unique vertices, 1 materials) 0.045384s
- loading '../../../Scenes/Blender_2.83/20191230_134947_010.obj'... (21504 vertices, 21188 unique vertices, 1 materials) 0.09827s
- loading '../../../Scenes/Blender_2.83/boatback_016.obj'... (546 vertices, 718 unique vertices, 1 materials) 0.040578s
- loading '../../../Scenes/Blender_2.83/Cylinder_022.obj'... (5022 vertices, 5349 unique vertices, 1 materials) 0.0419029s
- loading '../../../Scenes/Blender_2.83/Cube_060.obj'... (666 vertices, 664 unique vertices, 1 materials) 0.0477896s
- loading '../../../Scenes/Blender_2.83/Cube_016.obj'... (216 vertices, 220 unique vertices, 1 materials) 0.0385907s
- loading '../../../Scenes/Blender_2.83/Cube_005.obj'... (318 vertices, 306 unique vertices, 1 materials) 0.0566194s
- loading '../../../Scenes/Blender_2.83/Cube_020.obj'... (11538 vertices, 17654 unique vertices, 4 materials) 0.0725988s
- loading '../../../Scenes/Blender_2.83/BezierCurve_040.obj'... (6120 vertices, 1105 unique vertices, 1 materials) 0.0562577s
- loading '../../../Scenes/Blender_2.83/Cube_127.obj'... (156 vertices, 68 unique vertices, 1 materials) 0.0449541s
- loading '../../../Scenes/Blender_2.83/Cube_041.obj'... (216 vertices, 220 unique vertices, 1 materials) 0.0238895s
- loading '../../../Scenes/Blender_2.83/Cylinder_037.obj'... (1482 vertices, 554 unique vertices, 1 materials) 0.0492832s
- loading '../../../Scenes/Blender_2.83/Cube_029.obj'... (2067 vertices, 1313 unique vertices, 1 materials) 0.0606435s
- loading '../../../Scenes/Blender_2.83/Cube_079.obj'... (864 vertices, 381 unique vertices, 1 materials) 0.0720924s
- loading '../../../Scenes/Blender_2.83/Text_006.obj'... (22032 vertices, 7439 unique vertices, 1 materials) 0.0682099s
- loading '../../../Scenes/Blender_2.83/Cube_064.obj'... (11994 vertices, 14472 unique vertices, 2 materials) 0.0580324s
- loading '../../../Scenes/Blender_2.83/Cube_093.obj'... (6546 vertices, 2179 unique vertices, 1 materials) 0.0411935s
- loading '../../../Scenes/Blender_2.83/BezierCurve_017.obj'... (6624 vertices, 1196 unique vertices, 1 materials) 0.0802958s
- loading '../../../Scenes/Blender_2.83/Cube_072.obj'... (6477 vertices, 8224 unique vertices, 1 materials) 0.0621602s
- loading '../../../Scenes/Blender_2.83/Cube_112.obj'... (7152 vertices, 4924 unique vertices, 3 materials) 0.0276569s
- loading '../../../Scenes/Blender_2.83/Cube_102.obj'... (24264 vertices, 8088 unique vertices, 1 materials) 0.0536976s
- loading '../../../Scenes/Blender_2.83/Cylinder_071.obj'... (1482 vertices, 554 unique vertices, 1 materials) 0.0525131s
- loading '../../../Scenes/Blender_2.83/BezierCurve_027.obj'... (9612 vertices, 3471 unique vertices, 1 materials) 0.0720355s
- loading '../../../Scenes/Blender_2.83/Backpacks_004.obj'... (19938 vertices, 39604 unique vertices, 1 materials) 0.0919064s
- loading '../../../Scenes/Blender_2.83/BezierCurve_005.obj'... (6624 vertices, 1196 unique vertices, 1 materials) 0.0834808s
- loading '../../../Scenes/Blender_2.83/Cube_050.obj'... (2313 vertices, 956 unique vertices, 1 materials) 0.023188s
- loading '../../../Scenes/Blender_2.83/Text_004.obj'... (10584 vertices, 3564 unique vertices, 1 materials) 0.0407615s
- loading '../../../Scenes/Blender_2.83/Power_Meter_1_003.obj'... (18441 vertices, 6795 unique vertices, 7 materials) 0.0691508s
- loading '../../../Scenes/Blender_2.83/boatback_025.obj'... (264 vertices, 298 unique vertices, 1 materials) 0.0186442s
- loading '../../../Scenes/Blender_2.83/boxes_002.obj'... (318 vertices, 315 unique vertices, 1 materials) 0.0202455s
- loading '../../../Scenes/Blender_2.83/Cube_099.obj'... (24264 vertices, 8088 unique vertices, 1 materials) 0.029352s
- loading '../../../Scenes/Blender_2.83/Cube_066.obj'... (6477 vertices, 8224 unique vertices, 1 materials) 0.0339399s
- loading '../../../Scenes/Blender_2.83/Plane_015.obj'... (36 vertices, 12 unique vertices, 1 materials) 0.0548433s
- loading '../../../Scenes/Blender_2.83/_Grill_002.obj'... (5808 vertices, 7512 unique vertices, 1 materials) 0.0664413s
- loading '../../../Scenes/Blender_2.83/Power_Meter_4.obj'... (48414 vertices, 16119 unique vertices, 5 materials) 0.104838s
- loading '../../../Scenes/Blender_2.83/aaass.obj'... (0 vertices, 0 unique vertices, 1 materials) 0.0442334s
- loading '../../../Scenes/Blender_2.83/Power_Meter_1_001.obj'... (18441 vertices, 6787 unique vertices, 7 materials) 0.0830781s
- loading '../../../Scenes/Blender_2.83/Low_Drift_Complex_Steam_004.obj'... (12 vertices, 4 unique vertices, 1 materials) 0.00443642s
- loading '../../../Scenes/Blender_2.83/Armature_002.obj'... (0 vertices, 0 unique vertices, 1 materials) 0.0458851s
- loading '../../../Scenes/Blender_2.83/Cube_047.obj'... (216 vertices, 220 unique vertices, 1 materials) 0.00384625s
- loading '../../../Scenes/Blender_2.83/Armature_004.obj'... (0 vertices, 0 unique vertices, 1 materials) 0.0390769s
- loading '../../../Scenes/Blender_2.83/20191230_134947_014.obj'... (5922 vertices, 5712 unique vertices, 1 materials) 0.0518217s
- loading '../../../Scenes/Blender_2.83/boatback_022.obj'... (546 vertices, 718 unique vertices, 1 materials) 0.00557327s
- loading '../../../Scenes/Blender_2.83/Cube_007.obj'... (2100 vertices, 1030 unique vertices, 1 materials) 0.0451798s
- loading '../../../Scenes/Blender_2.83/Cylinder_016.obj'... (852 vertices, 908 unique vertices, 1 materials) 0.0326249s
- loading '../../../Scenes/Blender_2.83/_scaffold_000.obj'... (1068 vertices, 1068 unique vertices, 2 materials) 0.00850857s
- loading '../../../Scenes/Blender_2.83/BezierCurve_011.obj'... (6624 vertices, 1196 unique vertices, 1 materials) 0.0640201s
- loading '../../../Scenes/Blender_2.83/Cube_073.obj'... (1740 vertices, 858 unique vertices, 1 materials) 0.051711s
- loading '../../../Scenes/Blender_2.83/Cube_094.obj'... (6546 vertices, 2179 unique vertices, 1 materials) 0.04369s
- loading '../../../Scenes/Blender_2.83/Cube_129.obj'... (156 vertices, 68 unique vertices, 1 materials) 0.00399149s
- loading '../../../Scenes/Blender_2.83/Wall_Electrical_001.obj'... (22710 vertices, 7533 unique vertices, 2 materials) 0.0895874s
- loading '../../../Scenes/Blender_2.83/Cube_031.obj'... (2124 vertices, 856 unique vertices, 1 materials) 0.0344536s
- loading '../../../Scenes/Blender_2.83/Cube_069.obj'... (6477 vertices, 8222 unique vertices, 1 materials) 0.053121s
- loading '../../../Scenes/Blender_2.83/Cube_045.obj'... (1920 vertices, 640 unique vertices, 1 materials) 0.0244048s
- loading '../../../Scenes/Blender_2.83/boatback_011.obj'... (102 vertices, 90 unique vertices, 1 materials) 0.0561015s
- loading '../../../Scenes/Blender_2.83/20191230_134947_007.obj'... (5922 vertices, 5728 unique vertices, 1 materials) 0.0943849s
- loading '../../../Scenes/Blender_2.83/Backpacks_003.obj'... (19938 vertices, 39600 unique vertices, 1 materials) 0.153751s
- loading '../../../Scenes/Blender_2.83/Cube_062.obj'... (288 vertices, 96 unique vertices, 2 materials) 0.0450635s
- loading '../../../Scenes/Blender_2.83/BezierCurve_028.obj'... (2160 vertices, 724 unique vertices, 4 materials) 0.101103s
- loading '../../../Scenes/Blender_2.83/Cube_1490.obj'... (1800 vertices, 600 unique vertices, 1 materials) 0.0399709s
- loading '../../../Scenes/Blender_2.83/Cube_051.obj'... (3015 vertices, 1044 unique vertices, 1 materials) 0.0644566s
- loading '../../../Scenes/Blender_2.83/Plane_012.obj'... (329676 vertices, 112397 unique vertices, 3 materials) 0.396068s
- loading '../../../Scenes/Blender_2.83/20191230_134947_004.obj'... (21504 vertices, 21209 unique vertices, 1 materials) 0.0976733s
- loading '../../../Scenes/Blender_2.83/boatback_020.obj'... (1008 vertices, 958 unique vertices, 1 materials) 0.0468643s
- loading '../../../Scenes/Blender_2.83/Plane_976.obj'... (1170 vertices, 1421 unique vertices, 1 materials) 0.0226669s
- loading '../../../Scenes/Blender_2.83/Cube_052.obj'... (156 vertices, 68 unique vertices, 1 materials) 0.0198405s
- loading '../../../Scenes/Blender_2.83/20191230_134947_006.obj'... (5922 vertices, 5722 unique vertices, 1 materials) 0.0686432s
- loading '../../../Scenes/Blender_2.83/BezierCurve_032.obj'... (6120 vertices, 1105 unique vertices, 1 materials) 0.0658349s
- loading '../../../Scenes/Blender_2.83/boatback_019.obj'... (1296 vertices, 882 unique vertices, 1 materials) 0.0445275s
- loading '../../../Scenes/Blender_2.83/Cylinder_023.obj'... (2640 vertices, 1680 unique vertices, 3 materials) 0.0515725s
- loading '../../../Scenes/Blender_2.83/Cylinder_014.obj'... (996 vertices, 1052 unique vertices, 1 materials) 0.00453275s
- loading '../../../Scenes/Blender_2.83/Cube.obj'... (35115 vertices, 30510 unique vertices, 1 materials) 0.110239s
- loading '../../../Scenes/Blender_2.83/Cube_056.obj'... (468 vertices, 378 unique vertices, 3 materials) 0.0277827s
- loading '../../../Scenes/Blender_2.83/BezierCurve_015.obj'... (11304 vertices, 2041 unique vertices, 1 materials) 0.098104s
- loading '../../../Scenes/Blender_2.83/20191230_134947_001.obj'... (21504 vertices, 21239 unique vertices, 1 materials) 0.0916694s
- loading '../../../Scenes/Blender_2.83/Cube_084.obj'... (864 vertices, 381 unique vertices, 1 materials) 0.0363717s
- loading '../../../Scenes/Blender_2.83/Cube_070.obj'... (6477 vertices, 8222 unique vertices, 1 materials) 0.0693867s
- loading '../../../Scenes/Blender_2.83/boatback_023.obj'... (264 vertices, 298 unique vertices, 1 materials) 0.0281928s
- loading '../../../Scenes/Blender_2.83/Cube_2182.obj'... (1326 vertices, 1187 unique vertices, 1 materials) 0.0344874s
- loading '../../../Scenes/Blender_2.83/Boss_002.obj'... (89253 vertices, 42613 unique vertices, 1 materials) 0.262954s
- loading '../../../Scenes/Blender_2.83/boatback_017.obj'... (546 vertices, 718 unique vertices, 1 materials) 0.0303521s
- loading '../../../Scenes/Blender_2.83/Cube_024.obj'... (3213 vertices, 2075 unique vertices, 1 materials) 0.047513s
- loading '../../../Scenes/Blender_2.83/Cylinder_070.obj'... (1482 vertices, 554 unique vertices, 1 materials) 0.0688347s
- loading '../../../Scenes/Blender_2.83/_Robot_Flyers.obj'... (1092 vertices, 364 unique vertices, 1 materials) 0.0155072s
- loading '../../../Scenes/Blender_2.83/Cylinder_025.obj'... (2661 vertices, 1651 unique vertices, 3 materials) 0.0454061s
- loading '../../../Scenes/Blender_2.83/BezierCurve_012.obj'... (6624 vertices, 1196 unique vertices, 1 materials) 0.0631739s
- loading '../../../Scenes/Blender_2.83/KaitlinSarong_001.obj'... (79602 vertices, 41748 unique vertices, 1 materials) 0.260242s
- loading '../../../Scenes/Blender_2.83/Armature_001.obj'... (0 vertices, 0 unique vertices, 1 materials) 0.0515576s
- loading '../../../Scenes/Blender_2.83/Cube_053.obj'... (666 vertices, 664 unique vertices, 1 materials) 0.0589228s
- loading '../../../Scenes/Blender_2.83/Power_Meter_1_020.obj'... (18441 vertices, 6787 unique vertices, 7 materials) 0.0364573s
- loading '../../../Scenes/Blender_2.83/Cube_001.obj'... (23580 vertices, 8937 unique vertices, 1 materials) 0.0721332s
- loading '../../../Scenes/Blender_2.83/Power_Meter_1_013.obj'... (6144 vertices, 2376 unique vertices, 7 materials) 0.0593198s
- loading '../../../Scenes/Blender_2.83/boatback_009.obj'... (165 vertices, 117 unique vertices, 1 materials) 0.0376402s
- loading '../../../Scenes/Blender_2.83/Cube_101.obj'... (24264 vertices, 8088 unique vertices, 1 materials) 0.0549136s
- loading '../../../Scenes/Blender_2.83/_Grill_001.obj'... (5808 vertices, 7474 unique vertices, 1 materials) 0.0632027s
- loading '../../../Scenes/Blender_2.83/Rusty_Mounted_Box_1_002.obj'... (2184 vertices, 2230 unique vertices, 6 materials) 0.059582s
- loading '../../../Scenes/Blender_2.83/Cylinder_039.obj'... (1482 vertices, 554 unique vertices, 1 materials) 0.0364898s
- loading '../../../Scenes/Blender_2.83/Cube_105.obj'... (12012 vertices, 15278 unique vertices, 2 materials) 0.0987782s
- loading '../../../Scenes/Blender_2.83/Cylinder_005.obj'... (804 vertices, 844 unique vertices, 1 materials) 0.0134409s
- loading '../../../Scenes/Blender_2.83/Cylinder_001.obj'... (852 vertices, 900 unique vertices, 1 materials) 0.0485742s
- loading '../../../Scenes/Blender_2.83/Backpacks.obj'... (22251 vertices, 44033 unique vertices, 1 materials) 0.104429s
- loading '../../../Scenes/Blender_2.83/Cube_103.obj'... (11994 vertices, 14468 unique vertices, 2 materials) 0.0602751s
- loading '../../../Scenes/Blender_2.83/Cube_032.obj'... (318 vertices, 306 unique vertices, 1 materials) 0.0477203s
- loading '../../../Scenes/Blender_2.83/Cube_025.obj'... (2088 vertices, 1312 unique vertices, 2 materials) 0.0450089s
- loading '../../../Scenes/Blender_2.83/Mounted_Box_2_001.obj'... (4167 vertices, 1401 unique vertices, 1 materials) 0.00725708s
- loading '../../../Scenes/Blender_2.83/Cube_057.obj'... (468 vertices, 378 unique vertices, 3 materials) 0.045953s
- loading '../../../Scenes/Blender_2.83/Power_Meter_1_005.obj'... (6144 vertices, 2370 unique vertices, 7 materials) 0.0291549s
- loading '../../../Scenes/Blender_2.83/Cylinder_013.obj'... (852 vertices, 908 unique vertices, 1 materials) 0.117288s
- loading '../../../Scenes/Blender_2.83/Cube_058.obj'... (24 vertices, 24 unique vertices, 1 materials) 0.0601082s
- loading '../../../Scenes/Blender_2.83/Cube_046.obj'... (216 vertices, 220 unique vertices, 1 materials) 0.0596384s
- loading '../../../Scenes/Blender_2.83/boatback_001.obj'... (546 vertices, 718 unique vertices, 1 materials) 0.00860784s
- loading '../../../Scenes/Blender_2.83/Cylinder_003.obj'... (804 vertices, 844 unique vertices, 1 materials) 0.00481191s
- loading '../../../Scenes/Blender_2.83/boatback_002.obj'... (735 vertices, 469 unique vertices, 1 materials) 0.0245268s
- loading '../../../Scenes/Blender_2.83/boatback_012.obj'... (102 vertices, 90 unique vertices, 1 materials) 0.0384323s
- loading '../../../Scenes/Blender_2.83/Cube_115.obj'... (4428 vertices, 2494 unique vertices, 3 materials) 0.0395129s
- loading '../../../Scenes/Blender_2.83/Cylinder_066.obj'... (8856 vertices, 3126 unique vertices, 5 materials) 0.0227808s
- loading '../../../Scenes/Blender_2.83/Cylinder_031.obj'... (288 vertices, 360 unique vertices, 1 materials) 0.0258728s
- loading '../../../Scenes/Blender_2.83/Text_003.obj'... (11808 vertices, 3983 unique vertices, 1 materials) 0.0268845s
- loading '../../../Scenes/Blender_2.83/Cylinder_026.obj'... (72 vertices, 64 unique vertices, 3 materials) 0.00355099s
- loading '../../../Scenes/Blender_2.83/Cylinder_019.obj'... (804 vertices, 850 unique vertices, 1 materials) 0.00376768s
- loading '../../../Scenes/Blender_2.83/20191230_134947_008.obj'... (5922 vertices, 5756 unique vertices, 1 materials) 0.0560484s
- loading '../../../Scenes/Blender_2.83/Cube_010.obj'... (312 vertices, 312 unique vertices, 1 materials) 0.0690287s
- loading '../../../Scenes/Blender_2.83/Cube_133.obj'... (156 vertices, 68 unique vertices, 1 materials) 0.0186368s
- loading '../../../Scenes/Blender_2.83/The_Water.obj'... (12 vertices, 4 unique vertices, 1 materials) 0.0404637s
- loading '../../../Scenes/Blender_2.83/20191230_134947_003.obj'... (21504 vertices, 21214 unique vertices, 1 materials) 0.133994s
done loading
- loading '../assets/textures/white.png'... (1 x 1 x 3) 0.0140162s
RTV: Creating device buffer Vertices of size 70442964
LVP: vkBuffer size 70442964 created at 0x55ef3080aec8
RTV: New vkBuffer created at 0x55ef3080aec8
LLVM: llvmpipe_resource_bind_backing: pipe_screen 0x55ef2fc6e3c0; pipe_resource 0x55ef343f7a90; llvmpipe_resource 0x55ef343f7a90; pipe_memory_allocation 0x14f67a0c3000;
LVP: Binding lvp_buffer 0x55ef2ff4ee40: buffer->bo: 0x55ef343f7a90; buffer->pmem: 0x14f67a0c3000; memory-offset: 0;


        *** GPGPU-Sim Simulator Version 4.0.0 - Vulkan-Sim version 2.0.0  [build gpgpu-sim_git-commit-dc742faa6e5fcfaf415fe51eab71dcf9345388fd_modified_1.0] ***


GPGPU-Sim PTX: simulation mode 0 (can change with PTX_SIM_MODE_FUNC environment variable:
               1=functional simulation only, 0=detailed performance simulator)
GPGPU-Sim PTX: overriding embedded ptx with ptx file (PTX_SIM_USE_PTX_FILE is set)
GPGPU-Sim: Configuration options:

-save_embedded_ptx                      0 # saves ptx files embedded in binary as <n>.ptx
-keep                                   0 # keep intermediate files created by GPGPU-Sim when interfacing with external programs
-gpgpu_ptx_save_converted_ptxplus                    0 # Saved converted ptxplus to a file
-gpgpu_occupancy_sm_number                   75 # The SM number to pass to ptxas when getting register usage for computing GPU occupancy. This parameter is required in the config.
-ptx_opcode_latency_int      4,13,4,5,145,32 # Opcode latencies for integers <ADD,MAX,MUL,MAD,DIV,SHFL>Default 1,1,19,25,145,32
-ptx_opcode_latency_fp          4,13,4,5,39 # Opcode latencies for single precision floating points <ADD,MAX,MUL,MAD,DIV>Default 1,1,1,1,30
-ptx_opcode_latency_dp         8,19,8,8,330 # Opcode latencies for double precision floating points <ADD,MAX,MUL,MAD,DIV>Default 8,8,8,8,335
-ptx_opcode_latency_sfu                  100 # Opcode latencies for SFU instructionsDefault 8
-ptx_opcode_latency_tesnor                   64 # Opcode latencies for Tensor instructionsDefault 64
-ptx_opcode_initiation_int          2,2,2,2,8,4 # Opcode initiation intervals for integers <ADD,MAX,MUL,MAD,DIV,SHFL>Default 1,1,4,4,32,4
-ptx_opcode_initiation_fp            2,2,2,2,4 # Opcode initiation intervals for single precision floating points <ADD,MAX,MUL,MAD,DIV>Default 1,1,1,1,5
-ptx_opcode_initiation_dp          4,4,4,4,130 # Opcode initiation intervals for double precision floating points <ADD,MAX,MUL,MAD,DIV>Default 8,8,8,8,130
-ptx_opcode_initiation_sfu                    8 # Opcode initiation intervals for sfu instructionsDefault 8
-ptx_opcode_initiation_tensor                   64 # Opcode initiation intervals for tensor instructionsDefault 64
-cdp_latency         7200,8000,100,12000,1600 # CDP API latency <cudaStreamCreateWithFlags, cudaGetParameterBufferV2_init_perWarp, cudaGetParameterBufferV2_perKernel, cudaLaunchDeviceV2_init_perWarp, cudaLaunchDevicV2_perKernel>Default 7200,8000,100,12000,1600
-network_mode                           2 # Interconnection network mode
-inter_config_file                   mesh # Interconnection network config file
-icnt_in_buffer_limit                  512 # in_buffer_limit
-icnt_out_buffer_limit                  512 # out_buffer_limit
-icnt_subnets                           2 # subnets
-icnt_arbiter_algo                      1 # arbiter_algo
-icnt_verbose                           0 # inct_verbose
-icnt_grant_cycles                      1 # grant_cycles
-gpgpu_ptx_use_cuobjdump                    1 # Use cuobjdump to extract ptx and sass from binaries
-gpgpu_experimental_lib_support                    0 # Try to extract code from cuda libraries [Broken because of unknown cudaGetExportTable]
-checkpoint_option                      0 #  checkpointing flag (0 = no checkpoint)
-checkpoint_kernel                      1 #  checkpointing during execution of which kernel (1- 1st kernel)
-checkpoint_CTA                         0 #  checkpointing after # of CTA (< less than total CTA)
-resume_option                          0 #  resume flag (0 = no resume)
-resume_kernel                          0 #  Resume from which kernel (1= 1st kernel)
-resume_CTA                             0 #  resume from which CTA 
-checkpoint_CTA_t                       0 #  resume from which CTA 
-checkpoint_insn_Y                      0 #  resume from which CTA 
-gpgpu_ptx_convert_to_ptxplus                    0 # Convert SASS (native ISA) to ptxplus and run ptxplus
-gpgpu_ptx_force_max_capability                   75 # Force maximum compute capability
-gpgpu_ptx_inst_debug_to_file                    0 # Dump executed instructions' debug information to file
-gpgpu_ptx_inst_debug_file       inst_debug.txt # Executed instructions' debug output file
-gpgpu_ptx_inst_debug_thread_uid                    1 # Thread UID for executed instructions' debug output
-gpgpu_simd_model                       1 # 1 = post-dominator
-gpgpu_simd_rec_time_out                   -1 # -1 = no reconvergence time out
-gpgpu_simd_rec_size                    6 # number of physical entries in the reconvergence table
-gpgpu_simd_st_size                     6 # number of physical entries in the splits table
-gpgpu_simd_rec_replacement                    0 # reconvergence table replacement policy
-gpgpu_simd_st_replacement                    0 # splits table replacement policy
-gpgpu_shader_core_pipeline              1024:32 # shader core pipeline config, i.e., {<nthread>:<warpsize>}
-gpgpu_tex_cache:l1  N:4:128:256,L:R:m:N:L,T:512:8,128:2 # per-shader L1 texture cache  (READ-ONLY) config  {<nsets>:<bsize>:<assoc>,<rep>:<wr>:<alloc>:<wr_alloc>,<mshr>:<N>:<merge>,<mq>:<rf>}
-gpgpu_const_cache:l1 N:128:64:8,L:R:f:N:L,S:2:64,4 # per-shader L1 constant memory cache  (READ-ONLY) config  {<nsets>:<bsize>:<assoc>,<rep>:<wr>:<alloc>:<wr_alloc>,<mshr>:<N>:<merge>,<mq>} 
-gpgpu_rt_cache:l1   S:32:128:16,L:R:m:L:P,A:256:256,32:0,32 # per-shader L1 constant memory cache  (READ-ONLY) config  {<nsets>:<bsize>:<assoc>,<rep>:<wr>:<alloc>:<wr_alloc>,<mshr>:<N>:<merge>,<mq>} 
-gpgpu_rt_use_l1                        1 # use existing L1 cache instead of dedicated L0 cache 
-gpgpu_rt_perfect_mem                    0 # assume 0 latency BVH accesses 
-gpgpu_rt_coherence_engine                    0 # enable coherency engine (ray sorting) 
-gpgpu_rt_coherence_engine_config 100,10,16,g,0,3,2,0.25 # max cycles, hash 
-gpgpu_rt_disable_rt_cache                    0 # bypass RT cache and connect RT unit directly to interconnect 
-gpgpu_rt_max_warps                     4 # max number of warps concurrently in one rt core 
-gpgpu_rt_max_mshr                     64 # max number of MSHR entries in RT unit 
-gpgpu_rt_coalesce_warps                    0 # try to coalesce memory requests between warps 
-gpgpu_rt_intersection_latency        4,8,8,4,8,8,8 # latency of pipelined intersection tests (7 types)
-gpgpu_rt_intersection_table_type                    0 # type of intersection table
-gpgpu_cache:il1     N:64:128:16,L:R:f:N:L,S:2:48,4 # shader L1 instruction cache config  {<nsets>:<bsize>:<assoc>,<rep>:<wr>:<alloc>:<wr_alloc>,<mshr>:<N>:<merge>,<mq>} 
-gpgpu_cache:dl1     S:1:128:256,L:L:s:N:L,A:256:8,16:0,32 # per-shader L1 data cache config  {<nsets>:<bsize>:<assoc>,<rep>:<wr>:<alloc>:<wr_alloc>,<mshr>:<N>:<merge>,<mq> | none}
-gpgpu_l1_banks                         4 # The number of L1 cache banks
-gpgpu_l1_banks_byte_interleaving                   32 # l1 banks byte interleaving granularity
-gpgpu_l1_banks_hashing_function                    0 # l1 banks hashing function
-gpgpu_l1_latency                      20 # L1 Hit Latency
-gpgpu_smem_latency                    20 # smem Latency
-gpgpu_cache:dl1PrefL1                 none # per-shader L1 data cache config  {<nsets>:<bsize>:<assoc>,<rep>:<wr>:<alloc>:<wr_alloc>,<mshr>:<N>:<merge>,<mq> | none}
-gpgpu_cache:dl1PrefShared                 none # per-shader L1 data cache config  {<nsets>:<bsize>:<assoc>,<rep>:<wr>:<alloc>:<wr_alloc>,<mshr>:<N>:<merge>,<mq> | none}
-gpgpu_gmem_skip_L1D                    0 # global memory access skip L1D cache (implements -Xptxas -dlcm=cg, default=no skip)
-gpgpu_perfect_mem                      0 # enable perfect memory mode (no cache miss)
-n_regfile_gating_group                    4 # group of lanes that should be read/written together)
-gpgpu_clock_gated_reg_file                    0 # enable clock gated reg file for power calculations
-gpgpu_clock_gated_lanes                    0 # enable clock gated lanes for power calculations
-gpgpu_shader_registers                32768 # Number of registers per shader core. Limits number of concurrent CTAs. (default 8192)
-gpgpu_registers_per_block                32768 # Maximum number of registers per CTA. (default 8192)
-gpgpu_ignore_resources_limitation                    0 # gpgpu_ignore_resources_limitation (default 0)
-gpgpu_shader_cta                      16 # Maximum number of concurrent CTAs in shader (default 8)
-gpgpu_num_cta_barriers                   16 # Maximum number of named barriers per CTA (default 16)
-gpgpu_n_clusters                       8 # number of processing clusters
-gpgpu_n_cores_per_cluster                    1 # number of simd cores per cluster
-gpgpu_n_cluster_ejection_buffer_size                   32 # number of packets in ejection buffer
-gpgpu_n_ldst_response_buffer_size                    2 # number of response packets in ld/st unit ejection buffer
-gpgpu_shmem_per_block                65536 # Size of shared memory per thread block or CTA (default 48kB)
-gpgpu_shmem_size                   65536 # Size of shared memory per shader core (default 16kB)
-gpgpu_adaptive_cache_config                    0 # adaptive_cache_config
-gpgpu_shmem_sizeDefault                65536 # Size of shared memory per shader core (default 16kB)
-gpgpu_shmem_size_PrefL1                16384 # Size of shared memory per shader core (default 16kB)
-gpgpu_shmem_size_PrefShared                16384 # Size of shared memory per shader core (default 16kB)
-gpgpu_shmem_num_banks                   32 # Number of banks in the shared memory in each shader core (default 16)
-gpgpu_shmem_limited_broadcast                    0 # Limit shared memory to do one broadcast per cycle (default on)
-gpgpu_shmem_warp_parts                    1 # Number of portions a warp is divided into for shared memory bank conflict check 
-gpgpu_mem_unit_ports                    1 # The number of memory transactions allowed per core cycle
-gpgpu_shmem_warp_parts                    1 # Number of portions a warp is divided into for shared memory bank conflict check 
-gpgpu_warpdistro_shader                   -1 # Specify which shader core to collect the warp size distribution from
-gpgpu_warp_issue_shader                    0 # Specify which shader core to collect the warp issue distribution from
-gpgpu_local_mem_map                    1 # Mapping from local memory space address to simulated GPU physical address space (default = enabled)
-gpgpu_num_reg_banks                   16 # Number of register banks (default = 8)
-gpgpu_reg_bank_use_warp_id                    0 # Use warp ID in mapping registers to banks (default = off)
-gpgpu_sub_core_model                    1 # Sub Core Volta/Pascal model (default = off)
-gpgpu_enable_specialized_operand_collector                    0 # enable_specialized_operand_collector
-gpgpu_operand_collector_num_units_sp                    4 # number of collector units (default = 4)
-gpgpu_operand_collector_num_units_dp                    0 # number of collector units (default = 0)
-gpgpu_operand_collector_num_units_sfu                    4 # number of collector units (default = 4)
-gpgpu_operand_collector_num_units_int                    0 # number of collector units (default = 0)
-gpgpu_operand_collector_num_units_tensor_core                    4 # number of collector units (default = 4)
-gpgpu_operand_collector_num_units_mem                    2 # number of collector units (default = 2)
-gpgpu_operand_collector_num_units_gen                    8 # number of collector units (default = 0)
-gpgpu_operand_collector_num_in_ports_sp                    1 # number of collector unit in ports (default = 1)
-gpgpu_operand_collector_num_in_ports_dp                    0 # number of collector unit in ports (default = 0)
-gpgpu_operand_collector_num_in_ports_sfu                    1 # number of collector unit in ports (default = 1)
-gpgpu_operand_collector_num_in_ports_int                    0 # number of collector unit in ports (default = 0)
-gpgpu_operand_collector_num_in_ports_tensor_core                    1 # number of collector unit in ports (default = 1)
-gpgpu_operand_collector_num_in_ports_mem                    1 # number of collector unit in ports (default = 1)
-gpgpu_operand_collector_num_in_ports_gen                    8 # number of collector unit in ports (default = 0)
-gpgpu_operand_collector_num_out_ports_sp                    1 # number of collector unit in ports (default = 1)
-gpgpu_operand_collector_num_out_ports_dp                    0 # number of collector unit in ports (default = 0)
-gpgpu_operand_collector_num_out_ports_sfu                    1 # number of collector unit in ports (default = 1)
-gpgpu_operand_collector_num_out_ports_int                    0 # number of collector unit in ports (default = 0)
-gpgpu_operand_collector_num_out_ports_tensor_core                    1 # number of collector unit in ports (default = 1)
-gpgpu_operand_collector_num_out_ports_mem                    1 # number of collector unit in ports (default = 1)
-gpgpu_operand_collector_num_out_ports_gen                    8 # number of collector unit in ports (default = 0)
-gpgpu_coalesce_arch                   75 # Coalescing arch (GT200 = 13, Fermi = 20)
-gpgpu_num_sched_per_core                    4 # Number of warp schedulers per core
-gpgpu_max_insn_issue_per_warp                    1 # Max number of instructions that can be issued per warp in one cycle by scheduler (either 1 or 2)
-gpgpu_dual_issue_diff_exec_units                    1 # should dual issue use two different execution unit resources (Default = 1)
-gpgpu_simt_core_sim_order                    1 # Select the simulation order of cores in a cluster (0=Fix, 1=Round-Robin)
-gpgpu_pipeline_widths 4,0,4,4,4,4,0,4,4,4,8,4,4,4,4 # Pipeline widths ID_OC_SP,ID_OC_DP,ID_OC_INT,ID_OC_SFU,ID_OC_MEM,OC_EX_SP,OC_EX_DP,OC_EX_INT,OC_EX_SFU,OC_EX_MEM,EX_WB,ID_OC_TENSOR_CORE,OC_EX_TENSOR_CORE,ID_OC_RT,OC_EX_RT
-gpgpu_tensor_core_avail                    1 # Tensor Core Available (default=0)
-gpgpu_num_sp_units                     4 # Number of SP units (default=1)
-gpgpu_num_dp_units                     0 # Number of DP units (default=0)
-gpgpu_num_int_units                    4 # Number of INT units (default=0)
-gpgpu_num_sfu_units                    4 # Number of SF units (default=1)
-gpgpu_num_tensor_core_units                    4 # Number of tensor_core units (default=1)
-gpgpu_num_rt_core_units                    1 # Number of rt core units (default=1)
-gpgpu_num_mem_units                    1 # Number if ldst units (default=1) WARNING: not hooked up to anything
-gpgpu_scheduler                      gto # Scheduler configuration: < lrr | gto | two_level_active > If two_level_active:<num_active_warps>:<inner_prioritization>:<outer_prioritization>For complete list of prioritization values see shader.h enum scheduler_prioritization_typeDefault: gto
-gpgpu_concurrent_kernel_sm                    0 # Support concurrent kernels on a SM (default = disabled)
-gpgpu_perfect_inst_const_cache                    1 # perfect inst and const cache mode, so all inst and const hits in the cache(default = disabled)
-gpgpu_inst_fetch_throughput                    4 # the number of fetched intruction per warp each cycle
-gpgpu_reg_file_port_throughput                    2 # the number ports of the register file
-specialized_unit_1         0,4,4,4,4,BRA # specialized unit config {<enabled>,<num_units>:<latency>:<initiation>,<ID_OC_SPEC>:<OC_EX_SPEC>,<NAME>}
-specialized_unit_2         0,4,4,4,4,BRA # specialized unit config {<enabled>,<num_units>:<latency>:<initiation>,<ID_OC_SPEC>:<OC_EX_SPEC>,<NAME>}
-specialized_unit_3         0,4,4,4,4,BRA # specialized unit config {<enabled>,<num_units>:<latency>:<initiation>,<ID_OC_SPEC>:<OC_EX_SPEC>,<NAME>}
-specialized_unit_4         0,4,4,4,4,BRA # specialized unit config {<enabled>,<num_units>:<latency>:<initiation>,<ID_OC_SPEC>:<OC_EX_SPEC>,<NAME>}
-specialized_unit_5         0,4,4,4,4,BRA # specialized unit config {<enabled>,<num_units>:<latency>:<initiation>,<ID_OC_SPEC>:<OC_EX_SPEC>,<NAME>}
-specialized_unit_6         0,4,4,4,4,BRA # specialized unit config {<enabled>,<num_units>:<latency>:<initiation>,<ID_OC_SPEC>:<OC_EX_SPEC>,<NAME>}
-specialized_unit_7         0,4,4,4,4,BRA # specialized unit config {<enabled>,<num_units>:<latency>:<initiation>,<ID_OC_SPEC>:<OC_EX_SPEC>,<NAME>}
-specialized_unit_8         0,4,4,4,4,BRA # specialized unit config {<enabled>,<num_units>:<latency>:<initiation>,<ID_OC_SPEC>:<OC_EX_SPEC>,<NAME>}
-gpgpu_perf_sim_memcpy                    1 # Fill the L2 cache on memcpy
-gpgpu_simple_dram_model                    0 # simple_dram_model with fixed latency and BW
-gpgpu_dram_scheduler                    1 # 0 = fifo, 1 = FR-FCFS (defaul)
-gpgpu_dram_partition_queues          64:64:64:64 # i2$:$2d:d2$:$2i
-l2_ideal                               0 # Use a ideal L2 cache that always hit
-gpgpu_cache:dl2     S:64:128:16,L:B:m:L:P,A:192:4,32:0,32 # unified banked L2 data cache config  {<nsets>:<bsize>:<assoc>,<rep>:<wr>:<alloc>:<wr_alloc>,<mshr>:<N>:<merge>,<mq>}
-gpgpu_cache:dl2_texture_only                    0 # L2 cache used for texture only
-gpgpu_n_mem                            4 # number of memory modules (e.g. memory controllers) in gpu
-gpgpu_n_sub_partition_per_mchannel                    1 # number of memory subpartition in each memory module
-gpgpu_n_mem_per_ctrlr                    1 # number of memory chips per memory controller
-gpgpu_memlatency_stat                   14 # track and display latency statistics 0x2 enables MC, 0x4 enables queue logs
-gpgpu_frfcfs_dram_sched_queue_size                   64 # 0 = unlimited (default); # entries per chip
-gpgpu_dram_return_queue_size                  192 # 0 = unlimited (default); # entries per chip
-gpgpu_dram_buswidth                    2 # default = 4 bytes (8 bytes per cycle at DDR)
-gpgpu_dram_burst_length                    8 # Burst length of each DRAM request (default = 4 data bus cycle)
-dram_data_command_freq_ratio                    2 # Frequency ratio between DRAM data bus and command bus (default = 2 times, i.e. DDR)
-gpgpu_dram_timing_opt nbk=16:CCD=4:RRD=10:RCD=20:RAS=50:RP=20:RC=62: CL=20:WL=8:CDLR=9:WR=20:nbkgrp=4:CCDL=4:RTPL=4 # DRAM timing parameters = {nbk:tCCD:tRRD:tRCD:tRAS:tRP:tRC:CL:WL:tCDLR:tWR:nbkgrp:tCCDL:tRTPL}
-gpgpu_l2_rop_latency                  160 # ROP queue latency (default 85)
-dram_latency                         100 # DRAM latency (default 30)
-dram_dual_bus_interface                    0 # dual_bus_interface (default = 0) 
-dram_bnk_indexing_policy                    0 # dram_bnk_indexing_policy (0 = normal indexing, 1 = Xoring with the higher bits) (Default = 0)
-dram_bnkgrp_indexing_policy                    1 # dram_bnkgrp_indexing_policy (0 = take higher bits, 1 = take lower bits) (Default = 0)
-dram_seperate_write_queue_enable                    0 # Seperate_Write_Queue_Enable
-dram_write_queue_size             32:28:16 # Write_Queue_Size
-dram_elimnate_rw_turnaround                    0 # elimnate_rw_turnaround i.e set tWTR and tRTW = 0
-icnt_flit_size                        40 # icnt_flit_size
-gpgpu_mem_addr_mapping dramid@8;00000000.00000000.00000000.00000000.0000RRRR.RRRRRRRR.RBBBCCCC.BCCSSSSS # mapping memory address to dram model {dramid@<start bit>;<memory address map>}
-gpgpu_mem_addr_test                    0 # run sweep test to check address mapping for aliased address
-gpgpu_mem_address_mask                    1 # 0 = old addressing mask, 1 = new addressing mask, 2 = new add. mask + flipped bank sel and chip sel bits
-gpgpu_memory_partition_indexing                    0 # 0 = no indexing, 1 = bitwise xoring, 2 = IPoly, 3 = custom indexing
-gpuwattch_xml_file         gpuwattch.xml # GPUWattch XML file
-power_simulation_enabled                    0 # Turn on power simulator (1=On, 0=Off)
-power_per_cycle_dump                    0 # Dump detailed power output each cycle
-power_trace_enabled                    1 # produce a file for the power trace (1=On, 0=Off)
-power_trace_zlevel                     6 # Compression level of the power trace output log (0=no comp, 9=highest)
-steady_power_levels_enabled                    1 # produce a file for the steady power levels (1=On, 0=Off)
-steady_state_definition                  8:4 # allowed deviation:number of samples
-gpgpu_intermittent_stats                    0 # print intermittent stats
-gpgpu_intermittent_stats_freq                10000 # intermittent stats frequency
-gpgpu_max_cycle                        0 # terminates gpu simulation early (0 = no limit)
-gpgpu_max_insn                         0 # terminates gpu simulation early (0 = no limit)
-gpgpu_max_cta                          0 # terminates gpu simulation early (0 = no limit)
-gpgpu_max_completed_cta                    0 # terminates gpu simulation early (0 = no limit)
-gpgpu_runtime_stat                   500 # display runtime statistics such as dram utilization {<freq>:<flag>}
-liveness_message_freq                    1 # Minimum number of seconds between simulation liveness messages (0 = always print)
-gpgpu_compute_capability_major                    7 # Major compute capability version number
-gpgpu_compute_capability_minor                    5 # Minor compute capability version number
-gpgpu_flush_l1_cache                    1 # Flush L1 cache at the end of each kernel call
-gpgpu_flush_l2_cache                    0 # Flush L2 cache at the end of each kernel call
-gpgpu_deadlock_detect                    1 # Stop the simulation at deadlock (1=on (default), 0=off)
-gpgpu_ptx_instruction_classification                    1 # if enabled will classify ptx instruction types per kernel (Max 255 kernels now)
-gpgpu_ptx_sim_mode                     0 # Select between Performance (default) or Functional simulation (1)
-gpgpu_clock_domains 1365.0:1365.0:1365.0:3500.0 # Clock Domain Frequencies in MhZ {<Core Clock>:<ICNT Clock>:<L2 Clock>:<DRAM Clock>}
-gpgpu_max_concurrent_kernel                    8 # maximum kernels that can run concurrently on GPU
-gpgpu_cflog_interval                    0 # Interval between each snapshot in control flow logger
-visualizer_enabled                     0 # Turn on visualizer output (1=On, 0=Off)
-visualizer_outputfile       regular_ship16 # Specifies the output log file for visualizer
-visualizer_zlevel                      6 # Compression level of the visualizer output log (0=no comp, 9=highest)
-gpgpu_stack_size_limit                 1024 # GPU thread stack size
-gpgpu_heap_size_limit              8388608 # GPU malloc heap size 
-gpgpu_runtime_sync_depth_limit                    2 # GPU device runtime synchronize depth
-gpgpu_runtime_pending_launch_count_limit                 2048 # GPU device runtime pending launch count
-trace_enabled                          0 # Turn on traces
-trace_components                    none # comma seperated list of traces to enable. Complete list found in trace_streams.tup. Default none
-trace_sampling_core                    0 # The core which is printed using CORE_DPRINTF. Default 0
-trace_sampling_memory_partition                   -1 # The memory partition which is printed using MEMPART_DPRINTF. Default -1 (i.e. all)
-enable_ptx_file_line_stats                    1 # Turn on PTX source line statistic profiling. (1 = On)
-ptx_line_stats_filename gpgpu_inst_stats.txt # Output file for PTX source line statistics.
-gpgpu_kernel_launch_latency                 5000 # Kernel launch latency in cycles. Default: 0
-gpgpu_cdp_enabled                      0 # Turn on CDP
-gpgpu_TB_launch_latency                    0 # thread block launch latency in cycles. Default: 0
-gpgpu_max_simulated_rt_kernels                    1 # Max simulated kernels, used to limit how many frames we render. Default: 0
Streaming cache with 4096 mshr
GPGPU-Sim: Ray Coherence Engine Settings:
	Enabled: No
	Max cycles: 100
	Max packets: 16
	Sorting hash: grid-spherical
	Bits: 3-2
DRAM Timing Options:
nbk                                    16 # number of banks
CCD                                     4 # column to column delay
RRD                                    10 # minimal delay between activation of rows in different banks
RCD                                    20 # row to column delay
RAS                                    50 # time needed to activate row
RP                                     20 # time needed to precharge (deactivate) row
RC                                     62 # row cycle time
CDLR                                    9 # switching from write to read (changes tWTR)
WR                                     20 # last data-in to row precharge
CL                                     20 # CAS latency
WL                                      8 # Write latency
nbkgrp                                  4 # number of bank groups
CCDL                                    4 # column to column delay between accesses to different bank groups
RTPL                                    4 # read to precharge delay between accesses to different bank groups
Total number of memory sub partition = 4
addr_dec_mask[CHIP]  = 0000000000000300 	high:10 low:8
addr_dec_mask[BK]    = 000000000001c080 	high:17 low:7
addr_dec_mask[ROW]   = 000000003ffe0000 	high:30 low:17
addr_dec_mask[COL]   = 0000000000003c7f 	high:14 low:0
addr_dec_mask[BURST] = 000000000000001f 	high:5 low:0
sub_partition_id_mask = 0000000000000000
GPGPU-Sim uArch: clock freqs: 1365000000.000000:1365000000.000000:1365000000.000000:3500000000.000000
GPGPU-Sim uArch: clock periods: 0.00000000073260073260:0.00000000073260073260:0.00000000073260073260:0.00000000028571428571
*** Initializing Memory Statistics ***
GPGPU-Sim uArch: performance model initialization complete.
gpgpusim: binding gpgpusim buffer 0xc0000000 (size 70442964) to vulkan buffer 0x14f67a0c3000
LVP: gpgpusim buffer size 70442964 allocated at 0xc0000000
RTV: Bind buffer memory for vkBuffer 0x55ef3080aec8
LVP: vkBuffer size 70442964 created at 0x55ef37b6cfa8
RTV: New vkBuffer created at 0x55ef37b6cfa8
LLVM: llvmpipe_resource_bind_backing: pipe_screen 0x55ef2fc6e3c0; pipe_resource 0x55ef48c4fb40; llvmpipe_resource 0x55ef48c4fb40; pipe_memory_allocation 0x14f675d93000;
LVP: Binding lvp_buffer 0x55ef48c4fac0: buffer->bo: 0x55ef48c4fb40; buffer->pmem: 0x14f675d93000; memory-offset: 0;
gpgpusim: binding gpgpusim buffer 0xc432e000 (size 70442964) to vulkan buffer 0x14f675d93000
LVP: gpgpusim buffer size 70442964 allocated at 0xc432e000
RTV: Bind buffer memory for vkBuffer 0x55ef37b6cfa8
LVP: Finding mapped memory for mem 0x55ef48c4fd50: mem->pmem 0x14f675d93000 
LVP: Identified at 0x14f675d93000
LVP: Command Buffer:
	VK_CMD_COPY_BUFFER2
RTV: Creating device buffer Indices of size 20703720
LVP: vkBuffer size 20703720 created at 0x55ef37b6cfa8
RTV: New vkBuffer created at 0x55ef37b6cfa8
LLVM: llvmpipe_resource_bind_backing: pipe_screen 0x55ef2fc6e3c0; pipe_resource 0x55ef59909760; llvmpipe_resource 0x55ef59909760; pipe_memory_allocation 0x55ef5990a000;
LVP: Binding lvp_buffer 0x55ef48c4fd50: buffer->bo: 0x55ef59909760; buffer->pmem: 0x55ef5990a000; memory-offset: 0;
gpgpusim: binding gpgpusim buffer 0xc865c000 (size 20703720) to vulkan buffer 0x55ef5990a000
LVP: gpgpusim buffer size 20703720 allocated at 0xc865c000
RTV: Bind buffer memory for vkBuffer 0x55ef37b6cfa8
LVP: vkBuffer size 20703720 created at 0x55ef59907d78
RTV: New vkBuffer created at 0x55ef59907d78
LLVM: llvmpipe_resource_bind_backing: pipe_screen 0x55ef2fc6e3c0; pipe_resource 0x55ef5fbc2ab0; llvmpipe_resource 0x55ef5fbc2ab0; pipe_memory_allocation 0x55ef5fbc3000;
LVP: Binding lvp_buffer 0x55ef59909630: buffer->bo: 0x55ef5fbc2ab0; buffer->pmem: 0x55ef5fbc3000; memory-offset: 0;
gpgpusim: binding gpgpusim buffer 0xc9a1aa00 (size 20703720) to vulkan buffer 0x55ef5fbc3000
LVP: gpgpusim buffer size 20703720 allocated at 0xc9a1aa00
RTV: Bind buffer memory for vkBuffer 0x55ef59907d78
LVP: Finding mapped memory for mem 0x55ef5fbc2cc0: mem->pmem 0x55ef5fbc3000 
LVP: Identified at 0x55ef5fbc3000
LVP: Command Buffer:
	VK_CMD_COPY_BUFFER2
RTV: Creating device buffer Materials of size 18432
LVP: vkBuffer size 18432 created at 0x55ef59907d78
RTV: New vkBuffer created at 0x55ef59907d78
LLVM: llvmpipe_resource_bind_backing: pipe_screen 0x55ef2fc6e3c0; pipe_resource 0x55ef5fbc3000; llvmpipe_resource 0x55ef5fbc3000; pipe_memory_allocation 0x55ef5fbc4000;
LVP: Binding lvp_buffer 0x55ef5fbc2cc0: buffer->bo: 0x55ef5fbc3000; buffer->pmem: 0x55ef5fbc4000; memory-offset: 0;
gpgpusim: binding gpgpusim buffer 0xcadd9400 (size 18432) to vulkan buffer 0x55ef5fbc4000
LVP: gpgpusim buffer size 18432 allocated at 0xcadd9400
RTV: Bind buffer memory for vkBuffer 0x55ef59907d78
LVP: vkBuffer size 18432 created at 0x55ef65e7c1d8
RTV: New vkBuffer created at 0x55ef65e7c1d8
LLVM: llvmpipe_resource_bind_backing: pipe_screen 0x55ef2fc6e3c0; pipe_resource 0x55ef5fbd9c10; llvmpipe_resource 0x55ef5fbd9c10; pipe_memory_allocation 0x55ef5fbda000;
LVP: Binding lvp_buffer 0x55ef65e7c300: buffer->bo: 0x55ef5fbd9c10; buffer->pmem: 0x55ef5fbda000; memory-offset: 0;
gpgpusim: binding gpgpusim buffer 0xcadddc00 (size 18432) to vulkan buffer 0x55ef5fbda000
LVP: gpgpusim buffer size 18432 allocated at 0xcadddc00
RTV: Bind buffer memory for vkBuffer 0x55ef65e7c1d8
LVP: Finding mapped memory for mem 0x55ef5fbd9e20: mem->pmem 0x55ef5fbda000 
LVP: Identified at 0x55ef5fbda000
LVP: Command Buffer:
	VK_CMD_COPY_BUFFER2
RTV: Creating device buffer Offsets of size 2560
LVP: vkBuffer size 2560 created at 0x55ef65e7c1d8
RTV: New vkBuffer created at 0x55ef65e7c1d8
LLVM: llvmpipe_resource_bind_backing: pipe_screen 0x55ef2fc6e3c0; pipe_resource 0x55ef5fbda000; llvmpipe_resource 0x55ef5fbda000; pipe_memory_allocation 0x55ef5fbdb000;
LVP: Binding lvp_buffer 0x55ef5fbd9e20: buffer->bo: 0x55ef5fbda000; buffer->pmem: 0x55ef5fbdb000; memory-offset: 0;
gpgpusim: binding gpgpusim buffer 0xcade2400 (size 2560) to vulkan buffer 0x55ef5fbdb000
LVP: gpgpusim buffer size 2560 allocated at 0xcade2400
RTV: Bind buffer memory for vkBuffer 0x55ef65e7c1d8
LVP: vkBuffer size 2560 created at 0x55ef5fbf06d8
RTV: New vkBuffer created at 0x55ef5fbf06d8
LLVM: llvmpipe_resource_bind_backing: pipe_screen 0x55ef2fc6e3c0; pipe_resource 0x55ef5fbdd610; llvmpipe_resource 0x55ef5fbdd610; pipe_memory_allocation 0x55ef5fbf1000;
LVP: Binding lvp_buffer 0x55ef5fbf0800: buffer->bo: 0x55ef5fbdd610; buffer->pmem: 0x55ef5fbf1000; memory-offset: 0;
gpgpusim: binding gpgpusim buffer 0xcade2e00 (size 2560) to vulkan buffer 0x55ef5fbf1000
LVP: gpgpusim buffer size 2560 allocated at 0xcade2e00
RTV: Bind buffer memory for vkBuffer 0x55ef5fbf06d8
LVP: Finding mapped memory for mem 0x55ef5fbdd820: mem->pmem 0x55ef5fbf1000 
LVP: Identified at 0x55ef5fbf1000
LVP: Command Buffer:
	VK_CMD_COPY_BUFFER2
RTV: Creating device buffer AABBs of size 7680
LVP: vkBuffer size 7680 created at 0x55ef5fbf06d8
RTV: New vkBuffer created at 0x55ef5fbf06d8
LLVM: llvmpipe_resource_bind_backing: pipe_screen 0x55ef2fc6e3c0; pipe_resource 0x55ef5fbf1000; llvmpipe_resource 0x55ef5fbf1000; pipe_memory_allocation 0x55ef5fbf3000;
LVP: Binding lvp_buffer 0x55ef5fbdd820: buffer->bo: 0x55ef5fbf1000; buffer->pmem: 0x55ef5fbf3000; memory-offset: 0;
gpgpusim: binding gpgpusim buffer 0xcade3800 (size 7680) to vulkan buffer 0x55ef5fbf3000
LVP: gpgpusim buffer size 7680 allocated at 0xcade3800
RTV: Bind buffer memory for vkBuffer 0x55ef5fbf06d8
LVP: vkBuffer size 7680 created at 0x55ef5fbf2c38
RTV: New vkBuffer created at 0x55ef5fbf2c38
LLVM: llvmpipe_resource_bind_backing: pipe_screen 0x55ef2fc6e3c0; pipe_resource 0x55ef5fbfbd90; llvmpipe_resource 0x55ef5fbfbd90; pipe_memory_allocation 0x55ef5fbfd000;
LVP: Binding lvp_buffer 0x55ef5fbf2d60: buffer->bo: 0x55ef5fbfbd90; buffer->pmem: 0x55ef5fbfd000; memory-offset: 0;
gpgpusim: binding gpgpusim buffer 0xcade5600 (size 7680) to vulkan buffer 0x55ef5fbfd000
LVP: gpgpusim buffer size 7680 allocated at 0xcade5600
RTV: Bind buffer memory for vkBuffer 0x55ef5fbf2c38
LVP: Finding mapped memory for mem 0x55ef5fbfbfa0: mem->pmem 0x55ef5fbfd000 
LVP: Identified at 0x55ef5fbfd000
LVP: Command Buffer:
	VK_CMD_COPY_BUFFER2
RTV: Creating device buffer Procedurals of size 5120
LVP: vkBuffer size 5120 created at 0x55ef5fbf2c38
RTV: New vkBuffer created at 0x55ef5fbf2c38
LLVM: llvmpipe_resource_bind_backing: pipe_screen 0x55ef2fc6e3c0; pipe_resource 0x55ef5fbfd000; llvmpipe_resource 0x55ef5fbfd000; pipe_memory_allocation 0x55ef5fc06000;
LVP: Binding lvp_buffer 0x55ef5fbfbfa0: buffer->bo: 0x55ef5fbfd000; buffer->pmem: 0x55ef5fc06000; memory-offset: 0;
gpgpusim: binding gpgpusim buffer 0xcade7400 (size 5120) to vulkan buffer 0x55ef5fc06000
LVP: gpgpusim buffer size 5120 allocated at 0xcade7400
RTV: Bind buffer memory for vkBuffer 0x55ef5fbf2c38
LVP: vkBuffer size 5120 created at 0x55ef5fc056a8
RTV: New vkBuffer created at 0x55ef5fc056a8
LLVM: llvmpipe_resource_bind_backing: pipe_screen 0x55ef2fc6e3c0; pipe_resource 0x55ef5fc0a090; llvmpipe_resource 0x55ef5fc0a090; pipe_memory_allocation 0x55ef5fc0b000;
LVP: Binding lvp_buffer 0x55ef5fc057d0: buffer->bo: 0x55ef5fc0a090; buffer->pmem: 0x55ef5fc0b000; memory-offset: 0;
gpgpusim: binding gpgpusim buffer 0xcade8800 (size 5120) to vulkan buffer 0x55ef5fc0b000
LVP: gpgpusim buffer size 5120 allocated at 0xcade8800
RTV: Bind buffer memory for vkBuffer 0x55ef5fc056a8
LVP: Finding mapped memory for mem 0x55ef5fc0a2a0: mem->pmem 0x55ef5fc0b000 
LVP: Identified at 0x55ef5fc0b000
LVP: Command Buffer:
	VK_CMD_COPY_BUFFER2
RTV: Creating device buffer CubeAABBs of size 7680
LVP: vkBuffer size 7680 created at 0x55ef5fc056a8
RTV: New vkBuffer created at 0x55ef5fc056a8
LLVM: llvmpipe_resource_bind_backing: pipe_screen 0x55ef2fc6e3c0; pipe_resource 0x55ef5fc0b000; llvmpipe_resource 0x55ef5fc0b000; pipe_memory_allocation 0x55ef5fc11000;
LVP: Binding lvp_buffer 0x55ef5fc0a2a0: buffer->bo: 0x55ef5fc0b000; buffer->pmem: 0x55ef5fc11000; memory-offset: 0;
gpgpusim: binding gpgpusim buffer 0xcade9c00 (size 7680) to vulkan buffer 0x55ef5fc11000
LVP: gpgpusim buffer size 7680 allocated at 0xcade9c00
RTV: Bind buffer memory for vkBuffer 0x55ef5fc056a8
LVP: vkBuffer size 7680 created at 0x55ef5fc10aa8
RTV: New vkBuffer created at 0x55ef5fc10aa8
LLVM: llvmpipe_resource_bind_backing: pipe_screen 0x55ef2fc6e3c0; pipe_resource 0x55ef5fc19390; llvmpipe_resource 0x55ef5fc19390; pipe_memory_allocation 0x55ef5fc1a000;
LVP: Binding lvp_buffer 0x55ef5fc10bd0: buffer->bo: 0x55ef5fc19390; buffer->pmem: 0x55ef5fc1a000; memory-offset: 0;
gpgpusim: binding gpgpusim buffer 0xcadeba00 (size 7680) to vulkan buffer 0x55ef5fc1a000
LVP: gpgpusim buffer size 7680 allocated at 0xcadeba00
RTV: Bind buffer memory for vkBuffer 0x55ef5fc10aa8
LVP: Finding mapped memory for mem 0x55ef5fc195a0: mem->pmem 0x55ef5fc1a000 
LVP: Identified at 0x55ef5fc1a000
LVP: Command Buffer:
	VK_CMD_COPY_BUFFER2
RTV: Creating device buffer ProceduralCubes of size 5120
LVP: vkBuffer size 5120 created at 0x55ef5fc10aa8
RTV: New vkBuffer created at 0x55ef5fc10aa8
LLVM: llvmpipe_resource_bind_backing: pipe_screen 0x55ef2fc6e3c0; pipe_resource 0x55ef5fc1a000; llvmpipe_resource 0x55ef5fc1a000; pipe_memory_allocation 0x55ef5fc23000;
LVP: Binding lvp_buffer 0x55ef5fc195a0: buffer->bo: 0x55ef5fc1a000; buffer->pmem: 0x55ef5fc23000; memory-offset: 0;
gpgpusim: binding gpgpusim buffer 0xcaded800 (size 5120) to vulkan buffer 0x55ef5fc23000
LVP: gpgpusim buffer size 5120 allocated at 0xcaded800
RTV: Bind buffer memory for vkBuffer 0x55ef5fc10aa8
LVP: vkBuffer size 5120 created at 0x55ef5fc22c58
RTV: New vkBuffer created at 0x55ef5fc22c58
[...]
dram[2]:    227316    218578    232714    204990    256786    236196    248996    239094    232406    216670    209240    193892    248714    235744    258662    243126 
dram[3]:    227306    200898    210298    203796    263266    232842    254184    220680    219926    204442    207512    192002    252660    233194    253058    235708 
total dram reads = 14702396
bank skew: 273168/192002 = 1.42
chip skew: 3707798/3611772 = 1.03
number of total write accesses:
dram[0]:     56714     11132     56780     12162     61030     12436     61344     12218     60670     12020     58898     11212     62508     11238     59988     11878 
dram[1]:     61170     16032     62656     17112     66580     17566     66570     16862     66940     17200     63958     16212     67856     16412     64364     16646 
dram[2]:     58528     15632     59506     16464     63980     16474     63786     16038     62686     16152     61648     15488     64168     15576     62768     16106 
dram[3]:     57126     13180     58076     13978     63454     14126     62296     13486     61994     13408     60238     12878     63074     13036     59978     13864 
total dram writes = 2445556
bank skew: 67856/11132 = 6.10
chip skew: 654136/572228 = 1.14
average mf latency per bank:
dram[0]:        230       208       208       187       238       216       217       191       215       199       209       185       214       194       217       210
dram[1]:        267       268       198       190       223       182       201       184       207       182       200       181       219       193       223       209
dram[2]:        240       222       191       208       203       183       200       184       216       196       188       176       203       192       217       212
dram[3]:        247       223       232       195       216       194       199       185       204       184       190       173       203       191       215       212
maximum mf latency per bank:
dram[0]:       3415       779      3516      1020      3518       974      3507      1222      3541       811      3537      1045      3898       812      3528       979
dram[1]:       3718      1040      3459      1204      3469       819      3499      1002      3760       948      3512       727      3622      1041      3497      1044
dram[2]:       3641      2835      3383      1119      3390      1036      3380      1226      3680       875      3438       804      3577       786      3417      1191
dram[3]:       3674      1130      3453      1233      3455       760      3456       980      3727       909      3484       817      3601      1138      3541       911
DRAM[0]: 16 bks, busW=2 BL=8 CL=20, tRRD=10 tCCD=4, tRCD=20 tRAS=50 tRP=20 tRC=62
n_cmd=46386501 n_nop=39356471 n_act=1452634 n_pre=1452618 n_ref_event=18446744073709551615 n_req=2069259 n_rd=3707798 n_rd_L2_A=0 n_write=0 n_wr_bk=572228 bw_util=0.3691
n_activity=41221743 dram_eff=0.4153
bk0: 237668a 39554341i bk1: 219296a 41592978i bk2: 217842a 39984756i bk3: 213134a 41796079i bk4: 244954a 39216932i bk5: 239658a 41032380i bk6: 273168a 38680446i bk7: 247390a 40801395i bk8: 224320a 39578855i bk9: 203740a 41739104i bk10: 213490a 39844542i bk11: 198554a 41991486i bk12: 255358a 38934762i bk13: 230774a 41217231i bk14: 252406a 39022825i bk15: 236046a 41134631i 

------------------------------------------------------------------------

Row_Buffer_Locality = 0.297993
Row_Buffer_Locality_read = 0.320778
Row_Buffer_Locality_write = 0.101853
Bank_Level_Parallism = 2.654366
Bank_Level_Parallism_Col = 1.896488
Bank_Level_Parallism_Ready = 1.328950
write_to_read_ratio_blp_rw_average = 0.189672
GrpLevelPara = 1.603446 

BW Util details:
bwutil = 0.369075 
total_CMD = 46386501 
util_bw = 17120104 
Wasted_Col = 13937321 
Wasted_Row = 6141650 
Idle = 9187426 

BW Util Bottlenecks: 
RCDc_limit = 14303714 
RCDWRc_limit = 1082364 
WTRc_limit = 3644083 
RTWc_limit = 3482893 
CCDLc_limit = 0 
rwq = 0 
CCDLc_limit_alone = 0 
WTRc_limit_alone = 3644083 
RTWc_limit_alone = 3482893 

Commands details: 
total_CMD = 46386501 
n_nop = 39356471 
Read = 3707798 
Write = 0 
L2_Alloc = 0 
L2_WB = 572228 
n_act = 1452634 
n_pre = 1452618 
n_ref = 18446744073709551615 
n_req = 2069259 
total_req = 4280026 

Dual Bus Interface Util: 
issued_total_row = 2905252 
issued_total_col = 4280026 
Row_Bus_Util =  0.062631 
CoL_Bus_Util = 0.092269 
Either_Row_CoL_Bus_Util = 0.151553 
Issued_on_Two_Bus_Simul_Util = 0.003347 
issued_two_Eff = 0.022084 
queue_avg = 0.992556 


dram_util_bins: 0 0 0 0 0 0 0 0 0 0
dram_eff_bins: 0 0 0 0 0 0 0 0 0 0
mrqq: max=64 avg=0.992556
DRAM[1]: 16 bks, busW=2 BL=8 CL=20, tRRD=10 tCCD=4, tRCD=20 tRAS=50 tRP=20 tRC=62
n_cmd=46386501 n_nop=39279984 n_act=1465850 n_pre=1465834 n_ref_event=0 n_req=2070832 n_rd=3679702 n_rd_L2_A=0 n_write=0 n_wr_bk=654136 bw_util=0.3737
n_activity=41326669 dram_eff=0.4195
bk0: 221826a 39732010i bk1: 210360a 41705119i bk2: 226450a 39739940i bk3: 210186a 41720217i bk4: 241110a 39185872i bk5: 231386a 41026571i bk6: 260160a 38642403i bk7: 243480a 40652396i bk8: 212426a 39628620i bk9: 210992a 41467072i bk10: 208840a 39809099i bk11: 195438a 41939638i bk12: 260630a 38625103i bk13: 239374a 40833107i bk14: 263526a 38584167i bk15: 243518a 40650454i 

------------------------------------------------------------------------

Row_Buffer_Locality = 0.292144
Row_Buffer_Locality_read = 0.316726
Row_Buffer_Locality_write = 0.096346
Bank_Level_Parallism = 2.701468
Bank_Level_Parallism_Col = 1.933036
Bank_Level_Parallism_Ready = 1.348057
write_to_read_ratio_blp_rw_average = 0.200475
GrpLevelPara = 1.624220 

BW Util details:
bwutil = 0.373715 
total_CMD = 46386501 
util_bw = 17335352 
Wasted_Col = 13969260 
Wasted_Row = 6056573 
Idle = 9025316 

BW Util Bottlenecks: 
RCDc_limit = 14183589 
RCDWRc_limit = 1162538 
WTRc_limit = 3912198 
RTWc_limit = 3667172 
CCDLc_limit = 0 
rwq = 0 
CCDLc_limit_alone = 0 
WTRc_limit_alone = 3912198 
RTWc_limit_alone = 3667172 

Commands details: 
total_CMD = 46386501 
n_nop = 39279984 
Read = 3679702 
Write = 0 
L2_Alloc = 0 
L2_WB = 654136 
n_act = 1465850 
n_pre = 1465834 
n_ref = 0 
n_req = 2070832 
total_req = 4333838 

Dual Bus Interface Util: 
issued_total_row = 2931684 
issued_total_col = 4333838 
Row_Bus_Util =  0.063201 
CoL_Bus_Util = 0.093429 
Either_Row_CoL_Bus_Util = 0.153202 
Issued_on_Two_Bus_Simul_Util = 0.003428 
issued_two_Eff = 0.022375 
queue_avg = 1.037044 


dram_util_bins: 0 0 0 0 0 0 0 0 0 0
dram_eff_bins: 0 0 0 0 0 0 0 0 0 0
mrqq: max=64 avg=1.03704
DRAM[2]: 16 bks, busW=2 BL=8 CL=20, tRRD=10 tCCD=4, tRCD=20 tRAS=50 tRP=20 tRC=62
n_cmd=46386501 n_nop=39265553 n_act=1476251 n_pre=1476235 n_ref_event=256 n_req=2076607 n_rd=3703124 n_rd_L2_A=0 n_write=0 n_wr_bk=625000 bw_util=0.3732
n_activity=41448933 dram_eff=0.4177
bk0: 227316a 39683418i bk1: 218578a 41566080i bk2: 232714a 39634678i bk3: 204990a 41891633i bk4: 256786a 38792932i bk5: 236196a 40881422i bk6: 248996a 38761728i bk7: 239094a 40788973i bk8: 232406a 39264914i bk9: 216670a 41320174i bk10: 209240a 39861954i bk11: 193892a 42015820i bk12: 248714a 38969190i bk13: 235744a 40976530i bk14: 258662a 38736056i bk15: 243126a 40751592i 

------------------------------------------------------------------------

Row_Buffer_Locality = 0.289104
Row_Buffer_Locality_read = 0.312522
Row_Buffer_Locality_write = 0.096434
Bank_Level_Parallism = 2.693671
Bank_Level_Parallism_Col = 1963843.875000
Bank_Level_Parallism_Ready = 1.340056
write_to_read_ratio_blp_rw_average = 0.000003
GrpLevelPara = 0.000021 

BW Util details:
bwutil = 0.373223 
total_CMD = 46386501 
util_bw = 17312496 
Wasted_Col = 14074335 
Wasted_Row = 6097677 
Idle = 8901993 

BW Util Bottlenecks: 
RCDc_limit = 14402210 
RCDWRc_limit = 1135044 
WTRc_limit = 3851790 
RTWc_limit = 3618954 
CCDLc_limit = 0 
rwq = 0 
CCDLc_limit_alone = 0 
WTRc_limit_alone = 3851790 
RTWc_limit_alone = 3618954 

Commands details: 
total_CMD = 46386501 
n_nop = 39265553 
Read = 3703124 
Write = 0 
L2_Alloc = 0 
L2_WB = 625000 
n_act = 1476251 
n_pre = 1476235 
n_ref = 256 
n_req = 2076607 
total_req = 4328124 

Dual Bus Interface Util: 
issued_total_row = 2952486 
issued_total_col = 4328124 
Row_Bus_Util =  0.063650 
CoL_Bus_Util = 0.093306 
Either_Row_CoL_Bus_Util = 0.153513 
Issued_on_Two_Bus_Simul_Util = 0.003442 
issued_two_Eff = 0.022421 
queue_avg = 1.010751 


dram_util_bins: 0 0 0 0 0 0 0 0 0 0
dram_eff_bins: 0 0 0 0 0 0 0 0 0 0
mrqq: max=64 avg=1.01075
DRAM[3]: 16 bks, busW=2 BL=8 CL=20, tRRD=10 tCCD=4, tRCD=20 tRAS=50 tRP=20 tRC=62
n_cmd=46386501 n_nop=39470237 n_act=1429753 n_pre=1429737 n_ref_event=36477157253424 n_req=2025253 n_rd=3611772 n_rd_L2_A=0 n_write=0 n_wr_bk=594192 bw_util=0.3627
n_activity=41110932 dram_eff=0.4092
bk0: 227306a 39818235i bk1: 200898a 42008974i bk2: 210298a 40151635i bk3: 203796a 41994601i bk4: 263266a 38669858i bk5: 232842a 41169938i bk6: 254184a 38869560i bk7: 220680a 41457930i bk8: 219926a 39627123i bk9: 204442a 41790560i bk10: 207512a 40069676i bk11: 192002a 42166790i bk12: 252660a 38934795i bk13: 233194a 41147483i bk14: 253058a 38986570i bk15: 235708a 41030931i 

------------------------------------------------------------------------

Row_Buffer_Locality = 0.294037
Row_Buffer_Locality_read = 0.317897
Row_Buffer_Locality_write = 0.097617
Bank_Level_Parallism = 2.620907
Bank_Level_Parallism_Col = 0.999883
Bank_Level_Parallism_Ready = 1.322289
write_to_read_ratio_blp_rw_average = 0.000000
GrpLevelPara = 0.000001 

BW Util details:
bwutil = 0.362689 
total_CMD = 46386501 
util_bw = 16823856 
Wasted_Col = 13952104 
Wasted_Row = 6215120 
Idle = 9395421 

BW Util Bottlenecks: 
RCDc_limit = 14197430 
RCDWRc_limit = 1126052 
WTRc_limit = 3667715 
RTWc_limit = 3485585 
CCDLc_limit = 0 
rwq = 0 
CCDLc_limit_alone = 0 
WTRc_limit_alone = 3667715 
RTWc_limit_alone = 3485585 

Commands details: 
total_CMD = 46386501 
n_nop = 39470237 
Read = 3611772 
Write = 0 
L2_Alloc = 0 
L2_WB = 594192 
n_act = 1429753 
n_pre = 1429737 
n_ref = 36477157253424 
n_req = 2025253 
total_req = 4205964 

Dual Bus Interface Util: 
issued_total_row = 2859490 
issued_total_col = 4205964 
Row_Bus_Util =  0.061645 
CoL_Bus_Util = 0.090672 
Either_Row_CoL_Bus_Util = 0.149101 
Issued_on_Two_Bus_Simul_Util = 0.003216 
issued_two_Eff = 0.021571 
queue_avg = 0.941348 


dram_util_bins: 0 0 0 0 0 0 0 0 0 0
dram_eff_bins: 0 0 0 0 0 0 0 0 0 0
mrqq: max=64 avg=0.941348

========= L2 cache stats =========
L2_cache_bank[0]: Access = 3665522, Miss = 2309566, Miss_rate = 0.630, Pending_hits = 28472, Reservation_fails = 5367
L2_cache_bank[1]: Access = 3677779, Miss = 2339321, Miss_rate = 0.636, Pending_hits = 29005, Reservation_fails = 7348
L2_cache_bank[2]: Access = 3525331, Miss = 2331843, Miss_rate = 0.661, Pending_hits = 30825, Reservation_fails = 7875
L2_cache_bank[3]: Access = 3501545, Miss = 2270327, Miss_rate = 0.648, Pending_hits = 28762, Reservation_fails = 6202
L2_total_cache_accesses = 14370177
L2_total_cache_misses = 9251057
L2_total_cache_miss_rate = 0.6438
L2_total_cache_pending_hits = 117064
L2_total_cache_reservation_fails = 26792
L2_total_cache_breakdown:
	L2_cache_stats_breakdown[GLOBAL_ACC_R][HIT] = 4074821
	L2_cache_stats_breakdown[GLOBAL_ACC_R][HIT_RESERVED] = 117026
	L2_cache_stats_breakdown[GLOBAL_ACC_R][MISS] = 2969527
	L2_cache_stats_breakdown[GLOBAL_ACC_R][RESERVATION_FAIL] = 26792
	L2_cache_stats_breakdown[GLOBAL_ACC_R][SECTOR_MISS] = 4381671
	L2_cache_stats_breakdown[LOCAL_ACC_R][HIT] = 0
	L2_cache_stats_breakdown[LOCAL_ACC_R][HIT_RESERVED] = 0
	L2_cache_stats_breakdown[LOCAL_ACC_R][MISS] = 0
	L2_cache_stats_breakdown[LOCAL_ACC_R][RESERVATION_FAIL] = 0
	L2_cache_stats_breakdown[LOCAL_ACC_R][SECTOR_MISS] = 0
	L2_cache_stats_breakdown[CONST_ACC_R][HIT] = 0
	L2_cache_stats_breakdown[CONST_ACC_R][HIT_RESERVED] = 0
	L2_cache_stats_breakdown[CONST_ACC_R][MISS] = 0
	L2_cache_stats_breakdown[CONST_ACC_R][RESERVATION_FAIL] = 0
	L2_cache_stats_breakdown[CONST_ACC_R][SECTOR_MISS] = 0
	L2_cache_stats_breakdown[TEXTURE_ACC_R][HIT] = 0
	L2_cache_stats_breakdown[TEXTURE_ACC_R][HIT_RESERVED] = 0
	L2_cache_stats_breakdown[TEXTURE_ACC_R][MISS] = 0
	L2_cache_stats_breakdown[TEXTURE_ACC_R][RESERVATION_FAIL] = 0
	L2_cache_stats_breakdown[TEXTURE_ACC_R][SECTOR_MISS] = 0
	L2_cache_stats_breakdown[GLOBAL_ACC_W][HIT] = 927235
	L2_cache_stats_breakdown[GLOBAL_ACC_W][HIT_RESERVED] = 38
	L2_cache_stats_breakdown[GLOBAL_ACC_W][MISS] = 778479
	L2_cache_stats_breakdown[GLOBAL_ACC_W][RESERVATION_FAIL] = 0
	L2_cache_stats_breakdown[GLOBAL_ACC_W][SECTOR_MISS] = 1121380
	L2_cache_stats_breakdown[BRU_ST_SPILL][HIT] = 0
	L2_cache_stats_breakdown[BRU_ST_SPILL][HIT_RESERVED] = 0
	L2_cache_stats_breakdown[BRU_ST_SPILL][MISS] = 0
	L2_cache_stats_breakdown[BRU_ST_SPILL][RESERVATION_FAIL] = 0
	L2_cache_stats_breakdown[BRU_ST_SPILL][SECTOR_MISS] = 0
	L2_cache_stats_breakdown[BRU_ST_FILL][HIT] = 0
	L2_cache_stats_breakdown[BRU_ST_FILL][HIT_RESERVED] = 0
	L2_cache_stats_breakdown[BRU_ST_FILL][MISS] = 0
	L2_cache_stats_breakdown[BRU_ST_FILL][RESERVATION_FAIL] = 0
	L2_cache_stats_breakdown[BRU_ST_FILL][SECTOR_MISS] = 0
	L2_cache_stats_breakdown[BRU_RT_SPILL][HIT] = 0
	L2_cache_stats_breakdown[BRU_RT_SPILL][HIT_RESERVED] = 0
	L2_cache_stats_breakdown[BRU_RT_SPILL][MISS] = 0
	L2_cache_stats_breakdown[BRU_RT_SPILL][RESERVATION_FAIL] = 0
	L2_cache_stats_breakdown[BRU_RT_SPILL][SECTOR_MISS] = 0
	L2_cache_stats_breakdown[BRU_RT_FILL][HIT] = 0
	L2_cache_stats_breakdown[BRU_RT_FILL][HIT_RESERVED] = 0
	L2_cache_stats_breakdown[BRU_RT_FILL][MISS] = 0
	L2_cache_stats_breakdown[BRU_RT_FILL][RESERVATION_FAIL] = 0
	L2_cache_stats_breakdown[BRU_RT_FILL][SECTOR_MISS] = 0
	L2_cache_stats_breakdown[LOCAL_ACC_W][HIT] = 0
	L2_cache_stats_breakdown[LOCAL_ACC_W][HIT_RESERVED] = 0
	L2_cache_stats_breakdown[LOCAL_ACC_W][MISS] = 0
	L2_cache_stats_breakdown[LOCAL_ACC_W][RESERVATION_FAIL] = 0
	L2_cache_stats_breakdown[LOCAL_ACC_W][SECTOR_MISS] = 0
	L2_cache_stats_breakdown[L1_WRBK_ACC][HIT] = 0
	L2_cache_stats_breakdown[L1_WRBK_ACC][HIT_RESERVED] = 0
	L2_cache_stats_breakdown[L1_WRBK_ACC][MISS] = 0
	L2_cache_stats_breakdown[L1_WRBK_ACC][RESERVATION_FAIL] = 0
	L2_cache_stats_breakdown[L1_WRBK_ACC][SECTOR_MISS] = 0
	L2_cache_stats_breakdown[L2_WRBK_ACC][HIT] = 0
	L2_cache_stats_breakdown[L2_WRBK_ACC][HIT_RESERVED] = 0
	L2_cache_stats_breakdown[L2_WRBK_ACC][MISS] = 0
	L2_cache_stats_breakdown[L2_WRBK_ACC][RESERVATION_FAIL] = 0
	L2_cache_stats_breakdown[L2_WRBK_ACC][SECTOR_MISS] = 0
	L2_cache_stats_breakdown[INST_ACC_R][HIT] = 0
	L2_cache_stats_breakdown[INST_ACC_R][HIT_RESERVED] = 0
	L2_cache_stats_breakdown[INST_ACC_R][MISS] = 0
	L2_cache_stats_breakdown[INST_ACC_R][RESERVATION_FAIL] = 0
	L2_cache_stats_breakdown[INST_ACC_R][SECTOR_MISS] = 0
	L2_cache_stats_breakdown[L1_WR_ALLOC_R][HIT] = 0
	L2_cache_stats_breakdown[L1_WR_ALLOC_R][HIT_RESERVED] = 0
	L2_cache_stats_breakdown[L1_WR_ALLOC_R][MISS] = 0
	L2_cache_stats_breakdown[L1_WR_ALLOC_R][RESERVATION_FAIL] = 0
	L2_cache_stats_breakdown[L1_WR_ALLOC_R][SECTOR_MISS] = 0
	L2_cache_stats_breakdown[L2_WR_ALLOC_R][HIT] = 0
	L2_cache_stats_breakdown[L2_WR_ALLOC_R][HIT_RESERVED] = 0
	L2_cache_stats_breakdown[L2_WR_ALLOC_R][MISS] = 0
	L2_cache_stats_breakdown[L2_WR_ALLOC_R][RESERVATION_FAIL] = 0
	L2_cache_stats_breakdown[L2_WR_ALLOC_R][SECTOR_MISS] = 0
	L2_cache_stats_breakdown[GLOBAL_ACC_R][TOTAL_ACCESS] = 11543045
	L2_cache_stats_breakdown[GLOBAL_ACC_W][TOTAL_ACCESS] = 2827132
	L2_cache_stats_breakdown[GLOBAL_ACC_R]_miss_rate = 0.6369
RT_L2_cache_stats_breakdown:
	rt_read_cold_miss = 336342
	rt_read_other_miss = 1506231
	rt_stats[READ][HIT] = 3407668
	rt_stats[READ][HIT_RESERVED] = 115658
	rt_stats[READ][MISS] = 1842573
	rt_stats[READ][RESERVATION_FAIL] = 18769
	rt_stats[READ][SECTOR_MISS] = 3559945
	rt_read_miss_rate = 0.6053
	rt_stats[WRITE][HIT] = 489024
	rt_stats[WRITE][HIT_RESERVED] = 0
	rt_stats[WRITE][MISS] = 733363
	rt_stats[WRITE][RESERVATION_FAIL] = 0
	rt_stats[WRITE][SECTOR_MISS] = 251889
	rt_overall_miss_rate = 0.6142
L2_total_cache_reservation_fail_breakdown:
	L2_cache_stats_fail_breakdown[GLOBAL_ACC_R][MSHR_ENTRY_FAIL] = 7162
	L2_cache_stats_fail_breakdown[GLOBAL_ACC_R][MSHR_MERGE_ENTRY_FAIL] = 19630
L2_cache_data_port_util = 0.073
L2_cache_fill_port_util = 0.102
Stats for Kernel 0 Classification

Min 0.000000 Max 15.000000 Average 3.105585 
[ 1559760 125489046 0 3889171 386738 14739911 0 0 0 0 0 7435478 123966 615412 0 14739911 0 0 0 0 0 0 0 0 0 ]
Stats for Kernel 0 OP Classification

Min 1.000000 Max 145.000000 Average 35.151856 
[ 0 35627233 0 0 714098 0 0 0 0 0 0 4817135 0 0 0 0 0 0 0 0 0 0 0 7655722 0 0 0 0 0 0 0 13403439 0 0 0 0 0 0 0 0 0 51828190 0 20941060 1246292 0 0 123966 123966 0 0 0 0 0 0 81920 0 0 631796 0 255666 0 98932 3033587 0 0 1015808 1015808 0 0 49152 0 0 1336472 0 0 0 0 0 0 0 0 0 0 0 0 0 0 0 0 0 0 0 2031616 0 0 0 32768 123966 8050890 ]
Ray tracing memory access distribution: 
868700	4206382	744734	2802003	2310557	491446	0	0	
rt_num_hits = 0
rt_num_any_hits = 491446
rt_n_anyhit_rays = 0
rt_n_closesthit_rays = 123966
rt_n_total_rays = 123966
rt_max_tree_depth = 15
rt_max_nodes_per_ray = 806
rt_tot_nodes_per_ray = 7753119
rt_avg_nodes_per_ray = 62.542301
g_inst_type_latency = 0 100288624 3751358 0 0 23901534 58372096 0 432924160 0 0 2018379390 6158320 4074386 0 0 601011 740997 0 0 0 0 0 0 0 0 0 0 
inst_class_by_shader
0:1336862	90360964	0	3264407	163840	9765869	0	0	0	0	0	6272124	123966	615412	0	0	0	0	0	0	
1:25034	1176598	0	50068	25034	225306	0	0	0	0	0	75102	0	0	0	0	0	0	0	0	
2:197864	33951484	0	574696	197864	4748736	0	0	0	0	0	1088252	0	0	0	0	0	0	0	0	
3:0	0	0	0	0	0	0	0	0	0	0	0	0	0	0	0	0	0	0	0	
4:0	0	0	0	0	0	0	0	0	0	0	0	0	0	0	0	0	0	0	0	
5:0	0	0	0	0	0	0	0	0	0	0	0	0	0	0	0	0	0	0	0	
6:0	0	0	0	0	0	0	0	0	0	0	0	0	0	0	0	0	0	0	0	
7:0	0	0	0	0	0	0	0	0	0	0	0	0	0	0	0	0	0	0	0	
8:0	0	0	0	0	0	0	0	0	0	0	0	0	0	0	0	0	0	0	0	
9:0	0	0	0	0	0	0	0	0	0	0	0	0	0	0	0	0	0	0	0	
10:0	0	0	0	0	0	0	0	0	0	0	0	0	0	0	0	0	0	0	0	
11:0	0	0	0	0	0	0	0	0	0	0	0	0	0	0	0	0	0	0	0	
12:0	0	0	0	0	0	0	0	0	0	0	0	0	0	0	0	0	0	0	0	
13:0	0	0	0	0	0	0	0	0	0	0	0	0	0	0	0	0	0	0	0	
14:0	0	0	0	0	0	0	0	0	0	0	0	0	0	0	0	0	0	0	0	
15:0	0	0	0	0	0	0	0	0	0	0	0	0	0	0	0	0	0	0	0	

icnt_total_pkts_mem_to_simt=14370177
icnt_total_pkts_simt_to_mem=14370177
LD_mem_lat_dist  0 0 1.14444 0 0 0 0 2.26561 160 2.68673 0.640262 0.624914 60.5407 12.2949 0.0322998 2.27433 4.73299 0.605501 0.252646 0 1.07998 1.6252 1 0 0 0 0
ST_mem_lat_dist  0 0 0 0 0 0 0 3.41228 2.69548 160 0 0 0 0 0 0 0 0 0 0 1.03746 1.1585 5.5896 1 0 0 0
----------------------------Interconnect-DETAILS--------------------------------
Req_Network_injected_packets_num = 14370177
Req_Network_cycles = 18090736
Req_Network_injected_packets_per_cycle =       0.7943 
Req_Network_conflicts_per_cycle =       0.1064
Req_Network_conflicts_per_cycle_util =       0.1833
Req_Bank_Level_Parallism =       1.3685
Req_Network_in_buffer_full_per_cycle =       0.0000
Req_Network_in_buffer_avg_util =       0.0683
Req_Network_out_buffer_full_per_cycle =       0.0001
Req_Network_out_buffer_avg_util =       0.2682

Reply_Network_injected_packets_num = 14370177
Reply_Network_cycles = 18090736
Reply_Network_injected_packets_per_cycle =        0.7943
Reply_Network_conflicts_per_cycle =        0.2312
Reply_Network_conflicts_per_cycle_util =       0.3956
Reply_Bank_Level_Parallism =       1.3592
Reply_Network_in_buffer_full_per_cycle =       0.0000
Reply_Network_in_buffer_avg_util =       0.2977
Reply_Network_out_buffer_full_per_cycle =       0.0000
Reply_Network_out_buffer_avg_util =       0.0993
----------------------------END-of-Interconnect-DETAILS-------------------------


gpgpu_simulation_time = 0 days, 3 hrs, 45 min, 16 sec (13516 sec)
gpgpu_simulation_rate = 11296 (inst/sec)
gpgpu_simulation_rate = 1338 (cycle/sec)
gpgpu_silicon_slowdown = 1020179x
Destroy streams for kernel 1: size 0
Max simulated kernels of 1 has reached, exiting.
GPGPU-Sim: *** exit detected ***
