Running from: /cluster/home/jorgfi
Job: vulkan_sim  ID: 23040401  Nodes: idun-07-03


ENVIRONMENT INFO
---------------------------
	- OS:	 Ubuntu 20.04.6 LTS
	- CPU:	 Intel(R) Xeon(R) Gold 6148 CPU @ 2.40GHz
	- RAM:	 753Gi

Mon Sep  8 12:32:36 2025       
+-----------------------------------------------------------------------------------------+
| NVIDIA-SMI 575.57.08              Driver Version: 575.57.08      CUDA Version: 12.9     |
|-----------------------------------------+------------------------+----------------------+
| GPU  Name                 Persistence-M | Bus-Id          Disp.A | Volatile Uncorr. ECC |
| Fan  Temp   Perf          Pwr:Usage/Cap |           Memory-Usage | GPU-Util  Compute M. |
|                                         |                        |               MIG M. |
|=========================================+========================+======================|
|   0  Tesla V100-PCIE-32GB           On  |   00000000:12:00.0 Off |                    0 |
| N/A   27C    P0             23W /  250W |       0MiB /  32768MiB |      0%      Default |
|                                         |                        |                  N/A |
+-----------------------------------------+------------------------+----------------------+
                                                                                         
+-----------------------------------------------------------------------------------------+
| Processes:                                                                              |
|  GPU   GI   CI              PID   Type   Process name                        GPU Memory |
|        ID   ID                                                               Usage      |
|=========================================================================================|
|  No running processes found                                                             |
+-----------------------------------------------------------------------------------------+


SIMULATION SETUP
---------------------
	- Device config:	 /cluster/home/jorgfi/vulkan-sim-root/vulkan-sim/configs/tested-cfgs/CUSTOM
	- gpgpu_ptx_sim_mode:	 0
	- Scene:		 13
	- Dimensions:
		- Width:	 32
		- Height:	 32
	- Samples:		 1
	- Shader type:		 5




STARTING SIMULATION...
--------------------------------------------------------



GPGPU-Sim version 4.0.0 - Vulkan-Sim version 2.0.0 (build gpgpu-sim_git-commit-dc742faa6e5fcfaf415fe51eab71dcf9345388fd-modified_585.0) configured with GPUWattch.

----------------------------------------------------------------------------
INFO - If you only care about PTX execution, ignore this message. GPGPU-Sim supports PTX execution in modern CUDA.
If you want to run PTXPLUS (sm_1x SASS) with a modern card configuration - set the envronment variable
$PTXAS_CUDA_INSTALL_PATH to point a CUDA version compabible with your card configurations (i.e. 8+ for PASCAL, 9+ for VOLTA etc..)
For example: "export $PTXAS_CUDA_INSTALL_PATH=/usr/local/cuda-9.1"

The following text describes why:
If you are using PTXPLUS, only sm_1x is supported and it requires that the app and simulator binaries are compiled in CUDA 4.2 or less.
The simulator requires it since CUDA headers desribe struct sizes in the exec which change from gen to gen.
The apps require 4.2 because new versions of CUDA tools have dropped parsing support for generating sm_1x
When running using modern config (i.e. volta) and PTXPLUS with CUDA 4.2, the $PTXAS_CUDA_INSTALL_PATH env variable is required to get proper register usage
(and hence occupancy) using a version of CUDA that knows the register usage on the real card.

----------------------------------------------------------------------------
setup_environment succeeded
Detected 753.8637619018555 GB of RAM.
Detected 40 CPUs, limiting to 39 processes.
Launching 39 processes...
Saving output to ./logs/WKND_AO.log
Running: ./RayTracer --scene 1 --width 32 --height 32 --samples 1  --shader-type 5
Saving output to ./logs/CAR_AO.log
Running: ./RayTracer --scene 9 --width 32 --height 32 --samples 1  AO
Error running ./RayTracer --scene 9 --width 32 --height 32 --samples 1  AO! Return value: 1
Saving output to ./logs/SPRNG_AO.log
Running: ./RayTracer --scene 11 --width 32 --height 32 --samples 1  AO
Error running ./RayTracer --scene 11 --width 32 --height 32 --samples 1  AO! Return value: 1
Saving output to ./logs/PARTY_AO.log
Running: ./RayTracer --scene 12 --width 32 --height 32 --samples 1  AO
Error running ./RayTracer --scene 12 --width 32 --height 32 --samples 1  AO! Return value: 1
Saving output to ./logs/FOX_AO.log
Running: ./RayTracer --scene 13 --width 32 --height 32 --samples 1  AO
Error running ./RayTracer --scene 13 --width 32 --height 32 --samples 1  AO! Return value: 1
Rerunning 4 failed commands...
Simulation complete! 4 failed.
