Running from: /cluster/home/jorgfi
Job: vulkan_sim  ID: 23025488  Nodes: idun-07-03


ENVIRONMENT INFO
---------------------------
	- OS:	 Ubuntu 20.04.6 LTS
	- CPU:	 Intel(R) Xeon(R) Gold 6148 CPU @ 2.40GHz
	- RAM:	 753Gi

Thu Sep  4 11:41:28 2025       
+-----------------------------------------------------------------------------------------+
| NVIDIA-SMI 575.57.08              Driver Version: 575.57.08      CUDA Version: 12.9     |
|-----------------------------------------+------------------------+----------------------+
| GPU  Name                 Persistence-M | Bus-Id          Disp.A | Volatile Uncorr. ECC |
| Fan  Temp   Perf          Pwr:Usage/Cap |           Memory-Usage | GPU-Util  Compute M. |
|                                         |                        |               MIG M. |
|=========================================+========================+======================|
|   0  Tesla V100-PCIE-32GB           On  |   00000000:12:00.0 Off |                    0 |
| N/A   28C    P0             23W /  250W |       0MiB /  32768MiB |      0%      Default |
|                                         |                        |                  N/A |
+-----------------------------------------+------------------------+----------------------+
                                                                                         
+-----------------------------------------------------------------------------------------+
| Processes:                                                                              |
|  GPU   GI   CI              PID   Type   Process name                        GPU Memory |
|        ID   ID                                                               Usage      |
|=========================================================================================|
|  No running processes found                                                             |
+-----------------------------------------------------------------------------------------+


SIMULATION SETUP
---------------------
	- Device config:	 /cluster/home/jorgfi/vulkan-sim-root/vulkan-sim/configs/tested-cfgs/MOBILE_SIM_2
	- gpgpu_ptx_sim_mode:	 1
	- Scene:		 12
	- Dimensions:
		- Width:	 512
		- Height:	 512
	- Samples:		 5
	- Shader type:		 1




STARTING SIMULATION...
--------------------------------------------------------



GPGPU-Sim version 4.0.0 - Vulkan-Sim version 2.0.0 (build gpgpu-sim_git-commit-dc742faa6e5fcfaf415fe51eab71dcf9345388fd-modified_585.0) configured with GPUWattch.

----------------------------------------------------------------------------
INFO - If you only care about PTX execution, ignore this message. GPGPU-Sim supports PTX execution in modern CUDA.
If you want to run PTXPLUS (sm_1x SASS) with a modern card configuration - set the envronment variable
$PTXAS_CUDA_INSTALL_PATH to point a CUDA version compabible with your card configurations (i.e. 8+ for PASCAL, 9+ for VOLTA etc..)
For example: "export $PTXAS_CUDA_INSTALL_PATH=/usr/local/cuda-9.1"

The following text describes why:
If you are using PTXPLUS, only sm_1x is supported and it requires that the app and simulator binaries are compiled in CUDA 4.2 or less.
The simulator requires it since CUDA headers desribe struct sizes in the exec which change from gen to gen.
The apps require 4.2 because new versions of CUDA tools have dropped parsing support for generating sm_1x
When running using modern config (i.e. volta) and PTXPLUS with CUDA 4.2, the $PTXAS_CUDA_INSTALL_PATH env variable is required to get proper register usage
(and hence occupancy) using a version of CUDA that knows the register usage on the real card.

----------------------------------------------------------------------------
setup_environment succeeded
MESA: Linking to LLVM resource bind packing.
Vulkan SDK Header Version: 296

Vulkan Instance Extensions: 
- VK_KHR_device_group_creation (0.0.1)
- VK_KHR_external_fence_capabilities (0.0.1)
- VK_KHR_external_memory_capabilities (0.0.1)
- VK_KHR_external_semaphore_capabilities (0.0.1)
- VK_KHR_get_physical_device_properties2 (0.0.2)
- VK_KHR_get_surface_capabilities2 (0.0.1)
- VK_KHR_surface (0.0.25)
- VK_KHR_surface_protected_capabilities (0.0.1)
- VK_KHR_xcb_surface (0.0.6)
- VK_KHR_xlib_surface (0.0.6)
- VK_EXT_debug_report (0.0.10)
- VK_EXT_debug_utils (0.0.2)
- VK_KHR_portability_enumeration (0.0.1)
- VK_LUNARG_direct_driver_loading (0.0.1)

Vulkan Instance Layers: 
- VK_LAYER_NV_optimus (1.4.303) : NVIDIA Optimus layer
- VK_LAYER_NV_present (1.4.303) : NVIDIA GR2608 layer

Vulkan Devices: 
- [0] UnknownVendor 'llvmpipe (LLVM 10.0.0, 256 bits)' (CPU: vulkan 1.3.254, driver llvmpipe Mesa 23.2.0-devel (git-b8f3e3980e) (LLVM 10.0.0) - 0.0.1)

Setting Device [0]:
Getting ray tracing pipeline properties...
- loading '../../../Scenes/Blender_2.83/Cube_042.obj'... (216 vertices, 220 unique vertices, 1 materials) 0.0781005s
- loading '../../../Scenes/Blender_2.83/Cube_132.obj'... (156 vertices, 68 unique vertices, 1 materials) 0.036703s
- loading '../../../Scenes/Blender_2.83/BezierCurve_009.obj'... (0 vertices, 0 unique vertices, 1 materials) 0.0803243s
- loading '../../../Scenes/Blender_2.83/Cube_076.obj'... (3213 vertices, 2075 unique vertices, 1 materials) 0.021971s
- loading '../../../Scenes/Blender_2.83/Cube_078.obj'... (864 vertices, 381 unique vertices, 1 materials) 0.0247666s
- loading '../../../Scenes/Blender_2.83/light_X_warning_006.obj'... (3558 vertices, 1400 unique vertices, 4 materials) 0.0232644s
- loading '../../../Scenes/Blender_2.83/Cylinder_030.obj'... (288 vertices, 360 unique vertices, 1 materials) 0.0166672s
- loading '../../../Scenes/Blender_2.83/Cube_065.obj'... (6477 vertices, 8224 unique vertices, 1 materials) 0.0671745s
- loading '../../../Scenes/Blender_2.83/Power_Pole_ID.obj'... (438 vertices, 438 unique vertices, 1 materials) 0.0456865s
- loading '../../../Scenes/Blender_2.83/Text_001.obj'... (28068 vertices, 9509 unique vertices, 1 materials) 0.105832s
- loading '../../../Scenes/Blender_2.83/_Grill_017.obj'... (2862 vertices, 3596 unique vertices, 1 materials) 0.0541478s
- loading '../../../Scenes/Blender_2.83/Cube_109.obj'... (6546 vertices, 2179 unique vertices, 1 materials) 0.0344883s
- loading '../../../Scenes/Blender_2.83/Cube_055.obj'... (2124 vertices, 856 unique vertices, 1 materials) 0.0600593s
- loading '../../../Scenes/Blender_2.83/Cylinder_072.obj'... (1482 vertices, 554 unique vertices, 1 materials) 0.10529s
- loading '../../../Scenes/Blender_2.83/boatback_008.obj'... (3078 vertices, 2360 unique vertices, 1 materials) 0.044427s
- loading '../../../Scenes/Blender_2.83/Cube_082.obj'... (864 vertices, 381 unique vertices, 1 materials) 0.0487524s
- loading '../../../Scenes/Blender_2.83/Power_Meter_1_007.obj'... (6144 vertices, 2370 unique vertices, 7 materials) 0.0546551s
- loading '../../../Scenes/Blender_2.83/boxes_001.obj'... (318 vertices, 315 unique vertices, 1 materials) 0.0213563s
- loading '../../../Scenes/Blender_2.83/Charlie_001.obj'... (31032 vertices, 15032 unique vertices, 1 materials) 0.119045s
- loading '../../../Scenes/Blender_2.83/Cylinder_011.obj'... (852 vertices, 908 unique vertices, 1 materials) 0.0698724s
- loading '../../../Scenes/Blender_2.83/Text_002.obj'... (15288 vertices, 5143 unique vertices, 1 materials) 0.0812935s
- loading '../../../Scenes/Blender_2.83/Cylinder_010.obj'... (852 vertices, 908 unique vertices, 1 materials) 0.0275582s
- loading '../../../Scenes/Blender_2.83/Rusty_Mounted_Box_1_001.obj'... (2184 vertices, 2204 unique vertices, 6 materials) 0.0260211s
- loading '../../../Scenes/Blender_2.83/Cylinder_006.obj'... (804 vertices, 844 unique vertices, 1 materials) 0.198781s
- loading '../../../Scenes/Blender_2.83/Cube_006.obj'... (318 vertices, 306 unique vertices, 1 materials) 0.0917289s
- loading '../../../Scenes/Blender_2.83/Cube_067.obj'... (6477 vertices, 8222 unique vertices, 1 materials) 0.0816324s
- loading '../../../Scenes/Blender_2.83/Power_Meter_1_016.obj'... (6144 vertices, 2422 unique vertices, 7 materials) 0.0484105s
- loading '../../../Scenes/Blender_2.83/Cube_004.obj'... (1242 vertices, 1467 unique vertices, 1 materials) 0.0419822s
- loading '../../../Scenes/Blender_2.83/BezierCurve_014.obj'... (11808 vertices, 2132 unique vertices, 1 materials) 0.0697586s
- loading '../../../Scenes/Blender_2.83/Cube_128.obj'... (156 vertices, 68 unique vertices, 1 materials) 0.045527s
- loading '../../../Scenes/Blender_2.83/Cube_028.obj'... (2688 vertices, 2678 unique vertices, 1 materials) 0.0565408s
- loading '../../../Scenes/Blender_2.83/Cube_080.obj'... (864 vertices, 381 unique vertices, 1 materials) 0.0409704s
- loading '../../../Scenes/Blender_2.83/boxes_004.obj'... (48 vertices, 20 unique vertices, 1 materials) 0.0315671s
- loading '../../../Scenes/Blender_2.83/BezierCurve_013.obj'... (11808 vertices, 2132 unique vertices, 1 materials) 0.0704654s
- loading '../../../Scenes/Blender_2.83/20191230_134947_060.obj'... (5922 vertices, 5730 unique vertices, 1 materials) 0.086668s
- loading '../../../Scenes/Blender_2.83/Cylinder_012.obj'... (852 vertices, 908 unique vertices, 1 materials) 0.0578496s
- loading '../../../Scenes/Blender_2.83/boatback_007.obj'... (708 vertices, 694 unique vertices, 1 materials) 0.0588828s
- loading '../../../Scenes/Blender_2.83/boatback_013.obj'... (165 vertices, 117 unique vertices, 1 materials) 0.0499046s
- loading '../../../Scenes/Blender_2.83/20191230_134947_011.obj'... (21504 vertices, 21200 unique vertices, 1 materials) 0.0864425s
- loading '../../../Scenes/Blender_2.83/Cylinder_021.obj'... (5022 vertices, 5331 unique vertices, 1 materials) 0.0283823s
- loading '../../../Scenes/Blender_2.83/Cube_059.obj'... (11994 vertices, 14468 unique vertices, 2 materials) 0.0359529s
- loading '../../../Scenes/Blender_2.83/Cube_074.obj'... (21156 vertices, 26956 unique vertices, 1 materials) 0.0880607s
- loading '../../../Scenes/Blender_2.83/BezierCurve_007.obj'... (6624 vertices, 1196 unique vertices, 1 materials) 0.0371954s
- loading '../../../Scenes/Blender_2.83/Power_Meter_1_004.obj'... (6144 vertices, 2370 unique vertices, 7 materials) 0.0227192s
- loading '../../../Scenes/Blender_2.83/Steady_Breeze_Chimney_Steam.obj'... (12 vertices, 4 unique vertices, 1 materials) 0.0573277s
- loading '../../../Scenes/Blender_2.83/Power_Meter_1_017.obj'... (6144 vertices, 2413 unique vertices, 7 materials) 0.0447429s
- loading '../../../Scenes/Blender_2.83/Boss_001.obj'... (89253 vertices, 42613 unique vertices, 1 materials) 0.279557s
- loading '../../../Scenes/Blender_2.83/Power_Meter_1_009.obj'... (6144 vertices, 2380 unique vertices, 7 materials) 0.0526037s
- loading '../../../Scenes/Blender_2.83/Cylinder_036.obj'... (1482 vertices, 554 unique vertices, 1 materials) 0.0901017s
- loading '../../../Scenes/Blender_2.83/Cube_071.obj'... (6477 vertices, 8224 unique vertices, 1 materials) 0.064514s
- loading '../../../Scenes/Blender_2.83/Cube_034.obj'... (3213 vertices, 2075 unique vertices, 1 materials) 0.0484545s
- loading '../../../Scenes/Blender_2.83/boatback_004.obj'... (708 vertices, 692 unique vertices, 1 materials) 0.00747155s
- loading '../../../Scenes/Blender_2.83/Text_005.obj'... (228 vertices, 84 unique vertices, 1 materials) 0.0535167s
- loading '../../../Scenes/Blender_2.83/_Steel_Cover_001.obj'... (948 vertices, 808 unique vertices, 1 materials) 0.0369263s
- loading '../../../Scenes/Blender_2.83/Cube_017.obj'... (216 vertices, 220 unique vertices, 1 materials) 0.0470247s
- loading '../../../Scenes/Blender_2.83/BezierCurve_002.obj'... (24696 vertices, 9777 unique vertices, 2 materials) 0.0538136s
- loading '../../../Scenes/Blender_2.83/Cube_5597.obj'... (24264 vertices, 8088 unique vertices, 1 materials) 0.081265s
- loading '../../../Scenes/Blender_2.83/Cylinder_017.obj'... (852 vertices, 900 unique vertices, 1 materials) 0.0554173s
- loading '../../../Scenes/Blender_2.83/cables_repeating.obj'... (9693 vertices, 7052 unique vertices, 1 materials) 0.0765517s
- loading '../../../Scenes/Blender_2.83/Wall_Electrical.obj'... (22710 vertices, 7533 unique vertices, 2 materials) 0.0907261s
- loading '../../../Scenes/Blender_2.83/boatback_015.obj'... (546 vertices, 718 unique vertices, 1 materials) 0.029503s
- loading '../../../Scenes/Blender_2.83/Cube_083.obj'... (864 vertices, 381 unique vertices, 1 materials) 0.0253438s
- loading '../../../Scenes/Blender_2.83/Phone_Booth_001.obj'... (4008 vertices, 2894 unique vertices, 6 materials) 0.0980024s
- loading '../../../Scenes/Blender_2.83/boatback_024.obj'... (264 vertices, 298 unique vertices, 1 materials) 0.0675182s
- loading '../../../Scenes/Blender_2.83/Cylinder_009.obj'... (852 vertices, 908 unique vertices, 1 materials) 0.00965652s
- loading '../../../Scenes/Blender_2.83/Cube_077.obj'... (3213 vertices, 2075 unique vertices, 1 materials) 0.0219256s
- loading '../../../Scenes/Blender_2.83/Cube_087.obj'... (864 vertices, 381 unique vertices, 1 materials) 0.0651084s
- loading '../../../Scenes/Blender_2.83/Cube_038.obj'... (4428 vertices, 2494 unique vertices, 3 materials) 0.0517042s
- loading '../../../Scenes/Blender_2.83/BezierCurve_016.obj'... (11304 vertices, 2041 unique vertices, 1 materials) 0.180037s
- loading '../../../Scenes/Blender_2.83/Cube_126.obj'... (4428 vertices, 2494 unique vertices, 3 materials) 0.706584s
- loading '../../../Scenes/Blender_2.83/20191230_134947_012.obj'... (21504 vertices, 21184 unique vertices, 1 materials) 0.0742664s
- loading '../../../Scenes/Blender_2.83/Power_Meter_1_015.obj'... (6144 vertices, 2422 unique vertices, 7 materials) 0.0730023s
- loading '../../../Scenes/Blender_2.83/Cylinder_029.obj'... (360 vertices, 364 unique vertices, 3 materials) 0.0167172s
- loading '../../../Scenes/Blender_2.83/Cylinder_024.obj'... (3000 vertices, 2040 unique vertices, 3 materials) 0.0232373s
- loading '../../../Scenes/Blender_2.83/Cube_054.obj'... (48 vertices, 44 unique vertices, 1 materials) 0.0330443s
- loading '../../../Scenes/Blender_2.83/20191230_134947_015.obj'... (5922 vertices, 5727 unique vertices, 1 materials) 0.0344003s
- loading '../../../Scenes/Blender_2.83/_Grill_003.obj'... (5808 vertices, 7508 unique vertices, 1 materials) 0.0860112s
- loading '../../../Scenes/Blender_2.83/Power_Meter_1_022.obj'... (6144 vertices, 2372 unique vertices, 7 materials) 0.099405s
- loading '../../../Scenes/Blender_2.83/Cube_104.obj'... (11994 vertices, 14472 unique vertices, 2 materials) 0.0459208s
- loading '../../../Scenes/Blender_2.83/BezierCurve_010.obj'... (22248 vertices, 4017 unique vertices, 1 materials) 0.0826667s
- loading '../../../Scenes/Blender_2.83/Cube_043.obj'... (216 vertices, 220 unique vertices, 1 materials) 0.0856426s
- loading '../../../Scenes/Blender_2.83/Cube_002.obj'... (216 vertices, 220 unique vertices, 1 materials) 0.0435821s
- loading '../../../Scenes/Blender_2.83/Rusty_Mounted_Box_1_003.obj'... (2184 vertices, 2230 unique vertices, 6 materials) 0.0660557s
- loading '../../../Scenes/Blender_2.83/Cube_107.obj'... (24264 vertices, 8088 unique vertices, 1 materials) 0.116838s
- loading '../../../Scenes/Blender_2.83/Cube_022.obj'... (2676 vertices, 2930 unique vertices, 1 materials) 0.0303432s
- loading '../../../Scenes/Blender_2.83/Cube_068.obj'... (6477 vertices, 8224 unique vertices, 1 materials) 0.0760881s
- loading '../../../Scenes/Blender_2.83/Pier.obj'... (900 vertices, 374 unique vertices, 1 materials) 0.0639504s
- loading '../../../Scenes/Blender_2.83/boatback_005.obj'... (708 vertices, 692 unique vertices, 1 materials) 0.0258517s
- loading '../../../Scenes/Blender_2.83/Cylinder_008.obj'... (996 vertices, 1132 unique vertices, 1 materials) 0.0230736s
- loading '../../../Scenes/Blender_2.83/Backpacks_002.obj'... (19938 vertices, 39600 unique vertices, 1 materials) 0.0979695s
- loading '../../../Scenes/Blender_2.83/Power_Meter_1_012.obj'... (6144 vertices, 2376 unique vertices, 7 materials) 0.327894s
- loading '../../../Scenes/Blender_2.83/Gondolier_002.obj'... (90228 vertices, 180036 unique vertices, 1 materials) 0.331776s
- loading '../../../Scenes/Blender_2.83/BezierCurve.obj'... (15624 vertices, 2821 unique vertices, 1 materials) 0.0996661s
- loading '../../../Scenes/Blender_2.83/Cube_095.obj'... (852 vertices, 978 unique vertices, 2 materials) 0.120382s
- loading '../../../Scenes/Blender_2.83/Cube_036.obj'... (852 vertices, 978 unique vertices, 2 materials) 0.0234334s
- loading '../../../Scenes/Blender_2.83/Cylinder_018.obj'... (852 vertices, 900 unique vertices, 1 materials) 0.0387425s
- loading '../../../Scenes/Blender_2.83/Power_Meter_1_018.obj'... (6144 vertices, 2422 unique vertices, 7 materials) 0.00719685s
- loading '../../../Scenes/Blender_2.83/Cylinder_027.obj'... (1626 vertices, 901 unique vertices, 3 materials) 0.0218771s
- loading '../../../Scenes/Blender_2.83/_Steel_Cover_005.obj'... (948 vertices, 808 unique vertices, 1 materials) 0.0226848s
- loading '../../../Scenes/Blender_2.83/BezierCurve_030.obj'... (2160 vertices, 724 unique vertices, 4 materials) 0.0155065s
- loading '../../../Scenes/Blender_2.83/boatback_010.obj'... (102 vertices, 90 unique vertices, 1 materials) 0.0318319s
- loading '../../../Scenes/Blender_2.83/Plane_006.obj'... (0 vertices, 0 unique vertices, 1 materials) 0.0318249s
- loading '../../../Scenes/Blender_2.83/boatback_006.obj'... (708 vertices, 692 unique vertices, 1 materials) 0.0556206s
- loading '../../../Scenes/Blender_2.83/Cube_108.obj'... (852 vertices, 978 unique vertices, 2 materials) 0.0477073s
- loading '../../../Scenes/Blender_2.83/Cube_015.obj'... (2520 vertices, 1716 unique vertices, 2 materials) 0.0147533s
- loading '../../../Scenes/Blender_2.83/SWAT_001.obj'... (62826 vertices, 41928 unique vertices, 4 materials) 0.1852s
- loading '../../../Scenes/Blender_2.83/Cube_003.obj'... (1242 vertices, 1467 unique vertices, 1 materials) 0.0272282s
- loading '../../../Scenes/Blender_2.83/Cube_086.obj'... (864 vertices, 381 unique vertices, 1 materials) 0.0192307s
- loading '../../../Scenes/Blender_2.83/Backpacks_001.obj'... (25893 vertices, 51206 unique vertices, 1 materials) 0.124857s
- loading '../../../Scenes/Blender_2.83/SWAT_002.obj'... (62826 vertices, 41928 unique vertices, 4 materials) 0.17885s
- loading '../../../Scenes/Blender_2.83/Power_Meter_1_008.obj'... (6144 vertices, 2370 unique vertices, 7 materials) 0.0191569s
- loading '../../../Scenes/Blender_2.83/Cube_049.obj'... (156 vertices, 68 unique vertices, 1 materials) 0.0208616s
- loading '../../../Scenes/Blender_2.83/Wall_Electrical_002.obj'... (22710 vertices, 7532 unique vertices, 2 materials) 0.0764492s
- loading '../../../Scenes/Blender_2.83/Cube_106.obj'... (24264 vertices, 8088 unique vertices, 1 materials) 0.0595701s
- loading '../../../Scenes/Blender_2.83/20191230_134947_005.obj'... (5922 vertices, 5761 unique vertices, 1 materials) 0.073208s
- loading '../../../Scenes/Blender_2.83/Rusty_Mounted_Box_1_004.obj'... (2184 vertices, 2192 unique vertices, 6 materials) 0.0700326s
- loading '../../../Scenes/Blender_2.83/Cube_081.obj'... (864 vertices, 381 unique vertices, 1 materials) 0.0256646s
- loading '../../../Scenes/Blender_2.83/BezierCurve_006.obj'... (6624 vertices, 1196 unique vertices, 1 materials) 0.052517s
- loading '../../../Scenes/Blender_2.83/boatback_021.obj'... (546 vertices, 718 unique vertices, 1 materials) 0.0471699s
- loading '../../../Scenes/Blender_2.83/20191230_134947_029.obj'... (21504 vertices, 21188 unique vertices, 1 materials) 0.0974913s
- loading '../../../Scenes/Blender_2.83/_Robot_Flyers_001.obj'... (1092 vertices, 364 unique vertices, 1 materials) 0.0239469s
- loading '../../../Scenes/Blender_2.83/light_X_warning_001.obj'... (3558 vertices, 1400 unique vertices, 4 materials) 0.0465423s
- loading '../../../Scenes/Blender_2.83/Cube_040.obj'... (216 vertices, 220 unique vertices, 1 materials) 0.0457995s
- loading '../../../Scenes/Blender_2.83/boatback_014.obj'... (546 vertices, 718 unique vertices, 1 materials) 0.0217746s
- loading '../../../Scenes/Blender_2.83/boatback_018.obj'... (1038 vertices, 966 unique vertices, 1 materials) 0.0433234s
- loading '../../../Scenes/Blender_2.83/Cylinder_2683.obj'... (35160 vertices, 11745 unique vertices, 1 materials) 0.307645s
- loading '../../../Scenes/Blender_2.83/BezierCurve_008.obj'... (6624 vertices, 1196 unique vertices, 1 materials) 0.0552162s
- loading '../../../Scenes/Blender_2.83/Cube_131.obj'... (156 vertices, 68 unique vertices, 1 materials) 0.0188247s
- loading '../../../Scenes/Blender_2.83/Cube_018.obj'... (19296 vertices, 10848 unique vertices, 1 materials) 0.0742417s
- loading '../../../Scenes/Blender_2.83/Cylinder_007.obj'... (804 vertices, 844 unique vertices, 1 materials) 0.0476463s
- loading '../../../Scenes/Blender_2.83/Cube_019.obj'... (19296 vertices, 10848 unique vertices, 1 materials) 0.0656209s
- loading '../../../Scenes/Blender_2.83/Cube_014.obj'... (2232 vertices, 1416 unique vertices, 2 materials) 0.0777952s
- loading '../../../Scenes/Blender_2.83/Cube_011.obj'... (216 vertices, 220 unique vertices, 1 materials) 0.030101s
- loading '../../../Scenes/Blender_2.83/Power_Meter_1_011.obj'... (6144 vertices, 2376 unique vertices, 7 materials) 0.0431506s
- loading '../../../Scenes/Blender_2.83/Cube_012.obj'... (2232 vertices, 1416 unique vertices, 2 materials) 0.0588661s
- loading '../../../Scenes/Blender_2.83/Cylinder_073.obj'... (1482 vertices, 554 unique vertices, 1 materials) 0.0819366s
- loading '../../../Scenes/Blender_2.83/BezierCurve_042.obj'... (294336 vertices, 54197 unique vertices, 1 materials) 0.847005s
- loading '../../../Scenes/Blender_2.83/BezierCurve_004.obj'... (8712 vertices, 1573 unique vertices, 1 materials) 0.0674511s
- loading '../../../Scenes/Blender_2.83/Cube_098.obj'... (24264 vertices, 8088 unique vertices, 1 materials) 0.0463714s
- loading '../../../Scenes/Blender_2.83/Cylinder_002.obj'... (804 vertices, 850 unique vertices, 1 materials) 0.0598571s
- loading '../../../Scenes/Blender_2.83/20191230_134947_009.obj'... (5922 vertices, 5756 unique vertices, 1 materials) 0.050882s
- loading '../../../Scenes/Blender_2.83/Armature_007.obj'... (0 vertices, 0 unique vertices, 1 materials) 0.0411182s
- loading '../../../Scenes/Blender_2.83/Cube_048.obj'... (216 vertices, 220 unique vertices, 1 materials) 0.0223488s
- loading '../../../Scenes/Blender_2.83/CyberSean.obj'... (90072 vertices, 50202 unique vertices, 1 materials) 0.289123s
- loading '../../../Scenes/Blender_2.83/Cube_008.obj'... (2700 vertices, 1815 unique vertices, 2 materials) 0.0679043s
- loading '../../../Scenes/Blender_2.83/Power_Meter_3.obj'... (5490 vertices, 1896 unique vertices, 6 materials) 0.0243394s
- loading '../../../Scenes/Blender_2.83/Gondolier_001.obj'... (90228 vertices, 40813 unique vertices, 1 materials) 0.286933s
- loading '../../../Scenes/Blender_2.83/KaitlinSarong_002.obj'... (79602 vertices, 41748 unique vertices, 1 materials) 0.246949s
- loading '../../../Scenes/Blender_2.83/Cube_027.obj'... (7200 vertices, 2634 unique vertices, 1 materials) 0.261098s
- loading '../../../Scenes/Blender_2.83/Cylinder_004.obj'... (804 vertices, 844 unique vertices, 1 materials) 0.047009s
- loading '../../../Scenes/Blender_2.83/boatback_003.obj'... (708 vertices, 692 unique vertices, 1 materials) 0.0133243s
- loading '../../../Scenes/Blender_2.83/Text.obj'... (7068 vertices, 2398 unique vertices, 1 materials) 0.39813s
- loading '../../../Scenes/Blender_2.83/Cube_110.obj'... (6720 vertices, 4774 unique vertices, 3 materials) 0.0501584s
- loading '../../../Scenes/Blender_2.83/Armature_006.obj'... (0 vertices, 0 unique vertices, 1 materials) 0.045471s
- loading '../../../Scenes/Blender_2.83/Power_Meter_1_006.obj'... (6144 vertices, 2370 unique vertices, 7 materials) 0.0313392s
- loading '../../../Scenes/Blender_2.83/Cube_130.obj'... (156 vertices, 68 unique vertices, 1 materials) 0.0213775s
- loading '../../../Scenes/Blender_2.83/Cube_030.obj'... (360 vertices, 237 unique vertices, 1 materials) 0.0546679s
- loading '../../../Scenes/Blender_2.83/Cylinder_020.obj'... (32874 vertices, 29340 unique vertices, 1 materials) 0.0897637s
- loading '../../../Scenes/Blender_2.83/Cube_013.obj'... (2232 vertices, 1416 unique vertices, 2 materials) 0.0407749s
- loading '../../../Scenes/Blender_2.83/Power_Meter_1_021.obj'... (6144 vertices, 2372 unique vertices, 7 materials) 0.0162223s
- loading '../../../Scenes/Blender_2.83/Cube_123.obj'... (156 vertices, 68 unique vertices, 1 materials) 0.0289241s
- loading '../../../Scenes/Blender_2.83/Armature_003.obj'... (0 vertices, 0 unique vertices, 1 materials) 0.0570025s
- loading '../../../Scenes/Blender_2.83/Cube_039.obj'... (8316 vertices, 6454 unique vertices, 2 materials) 0.0419607s
- loading '../../../Scenes/Blender_2.83/20191230_134947_013.obj'... (21504 vertices, 21186 unique vertices, 1 materials) 0.0785915s
- loading '../../../Scenes/Blender_2.83/Cube_035.obj'... (2124 vertices, 856 unique vertices, 1 materials) 0.0397763s
- loading '../../../Scenes/Blender_2.83/Power_Meter_1_002.obj'... (27540 vertices, 9558 unique vertices, 3 materials) 0.0496751s
- loading '../../../Scenes/Blender_2.83/Cube_026.obj'... (9762 vertices, 9196 unique vertices, 4 materials) 0.0419211s
- loading '../../../Scenes/Blender_2.83/BezierCurve_003.obj'... (8784 vertices, 1586 unique vertices, 1 materials) 0.0664552s
- loading '../../../Scenes/Blender_2.83/Cylinder.obj'... (852 vertices, 900 unique vertices, 1 materials) 0.0333856s
- loading '../../../Scenes/Blender_2.83/Power_Meter_2.obj'... (97656 vertices, 32903 unique vertices, 5 materials) 0.110564s
- loading '../../../Scenes/Blender_2.83/Power_Meter_1_010.obj'... (6144 vertices, 2376 unique vertices, 7 materials) 0.0321457s
- loading '../../../Scenes/Blender_2.83/BezierCurve_001.obj'... (15624 vertices, 2821 unique vertices, 1 materials) 0.0640945s
- loading '../../../Scenes/Blender_2.83/Cube_021.obj'... (3372 vertices, 5159 unique vertices, 1 materials) 0.0505431s
- loading '../../../Scenes/Blender_2.83/Cube_100.obj'... (24264 vertices, 8088 unique vertices, 1 materials) 0.0910605s
- loading '../../../Scenes/Blender_2.83/Armature_005.obj'... (0 vertices, 0 unique vertices, 1 materials) 0.0181465s
- loading '../../../Scenes/Blender_2.83/BezierCurve_041.obj'... (288 vertices, 52 unique vertices, 1 materials) 0.0546196s
- loading '../../../Scenes/Blender_2.83/boxes_005.obj'... (48 vertices, 20 unique vertices, 1 materials) 0.0388159s
- loading '../../../Scenes/Blender_2.83/light_X_warning_003.obj'... (3558 vertices, 1400 unique vertices, 4 materials) 0.0288877s
- loading '../../../Scenes/Blender_2.83/Cube_009.obj'... (2685 vertices, 1766 unique vertices, 1 materials) 0.0682189s
- loading '../../../Scenes/Blender_2.83/light_X_warning_002.obj'... (3558 vertices, 1400 unique vertices, 4 materials) 0.0368422s
- loading '../../../Scenes/Blender_2.83/boxes_006.obj'... (318 vertices, 311 unique vertices, 1 materials) 0.0802988s
- loading '../../../Scenes/Blender_2.83/Cylinder_040.obj'... (8856 vertices, 3126 unique vertices, 5 materials) 0.0406679s
- loading '../../../Scenes/Blender_2.83/20191230_134947_002.obj'... (21504 vertices, 21214 unique vertices, 1 materials) 0.104179s
- loading '../../../Scenes/Blender_2.83/Power_Meter_1_014.obj'... (6144 vertices, 2422 unique vertices, 7 materials) 0.100012s
- loading '../../../Scenes/Blender_2.83/Power_Meter_1_019.obj'... (6144 vertices, 2420 unique vertices, 7 materials) 0.0246697s
- loading '../../../Scenes/Blender_2.83/Cube_023.obj'... (228 vertices, 220 unique vertices, 1 materials) 0.0205206s
- loading '../../../Scenes/Blender_2.83/Cube_1320.obj'... (1836 vertices, 612 unique vertices, 1 materials) 0.0195587s
- loading '../../../Scenes/Blender_2.83/boxes_003.obj'... (48 vertices, 20 unique vertices, 1 materials) 0.0582809s
- loading '../../../Scenes/Blender_2.83/Cylinder_015.obj'... (852 vertices, 908 unique vertices, 1 materials) 0.0334837s
- loading '../../../Scenes/Blender_2.83/Cube_075.obj'... (360 vertices, 237 unique vertices, 1 materials) 0.0391438s
- loading '../../../Scenes/Blender_2.83/Cube_063.obj'... (900 vertices, 374 unique vertices, 1 materials) 0.0503508s
- loading '../../../Scenes/Blender_2.83/Cylinder_028.obj'... (3588 vertices, 2347 unique vertices, 3 materials) 0.0204926s
- loading '../../../Scenes/Blender_2.83/Cube_033.obj'... (2232 vertices, 1416 unique vertices, 2 materials) 0.0218945s
- loading '../../../Scenes/Blender_2.83/Cube_085.obj'... (864 vertices, 381 unique vertices, 1 materials) 0.00477285s
- loading '../../../Scenes/Blender_2.83/Cylinder_042.obj'... (828 vertices, 620 unique vertices, 1 materials) 0.0432534s
- loading '../../../Scenes/Blender_2.83/Cube_111.obj'... (864 vertices, 381 unique vertices, 1 materials) 0.0427274s
- loading '../../../Scenes/Blender_2.83/20191230_134947_010.obj'... (21504 vertices, 21188 unique vertices, 1 materials) 0.128333s
- loading '../../../Scenes/Blender_2.83/boatback_016.obj'... (546 vertices, 718 unique vertices, 1 materials) 0.03712s
- loading '../../../Scenes/Blender_2.83/Cylinder_022.obj'... (5022 vertices, 5349 unique vertices, 1 materials) 0.0382189s
- loading '../../../Scenes/Blender_2.83/Cube_060.obj'... (666 vertices, 664 unique vertices, 1 materials) 0.055078s
- loading '../../../Scenes/Blender_2.83/Cube_016.obj'... (216 vertices, 220 unique vertices, 1 materials) 0.0548367s
- loading '../../../Scenes/Blender_2.83/Cube_005.obj'... (318 vertices, 306 unique vertices, 1 materials) 0.0450047s
- loading '../../../Scenes/Blender_2.83/Cube_020.obj'... (11538 vertices, 17654 unique vertices, 4 materials) 0.0819003s
- loading '../../../Scenes/Blender_2.83/BezierCurve_040.obj'... (6120 vertices, 1105 unique vertices, 1 materials) 0.0452947s
- loading '../../../Scenes/Blender_2.83/Cube_127.obj'... (156 vertices, 68 unique vertices, 1 materials) 0.0114386s
- loading '../../../Scenes/Blender_2.83/Cube_041.obj'... (216 vertices, 220 unique vertices, 1 materials) 0.0250684s
- loading '../../../Scenes/Blender_2.83/Cylinder_037.obj'... (1482 vertices, 554 unique vertices, 1 materials) 0.0378999s
- loading '../../../Scenes/Blender_2.83/Cube_029.obj'... (2067 vertices, 1313 unique vertices, 1 materials) 0.384635s
- loading '../../../Scenes/Blender_2.83/Cube_079.obj'... (864 vertices, 381 unique vertices, 1 materials) 0.0245345s
- loading '../../../Scenes/Blender_2.83/Text_006.obj'... (22032 vertices, 7439 unique vertices, 1 materials) 0.0377945s
- loading '../../../Scenes/Blender_2.83/Cube_064.obj'... (11994 vertices, 14472 unique vertices, 2 materials) 0.0439547s
- loading '../../../Scenes/Blender_2.83/Cube_093.obj'... (6546 vertices, 2179 unique vertices, 1 materials) 0.0264447s
- loading '../../../Scenes/Blender_2.83/BezierCurve_017.obj'... (6624 vertices, 1196 unique vertices, 1 materials) 0.0628916s
- loading '../../../Scenes/Blender_2.83/Cube_072.obj'... (6477 vertices, 8224 unique vertices, 1 materials) 0.0791113s
- loading '../../../Scenes/Blender_2.83/Cube_112.obj'... (7152 vertices, 4924 unique vertices, 3 materials) 0.03096s
- loading '../../../Scenes/Blender_2.83/Cube_102.obj'... (24264 vertices, 8088 unique vertices, 1 materials) 0.0493577s
- loading '../../../Scenes/Blender_2.83/Cylinder_071.obj'... (1482 vertices, 554 unique vertices, 1 materials) 0.0394244s
- loading '../../../Scenes/Blender_2.83/BezierCurve_027.obj'... (9612 vertices, 3471 unique vertices, 1 materials) 0.0631789s
- loading '../../../Scenes/Blender_2.83/Backpacks_004.obj'... (19938 vertices, 39604 unique vertices, 1 materials) 0.0881919s
- loading '../../../Scenes/Blender_2.83/BezierCurve_005.obj'... (6624 vertices, 1196 unique vertices, 1 materials) 0.0603736s
- loading '../../../Scenes/Blender_2.83/Cube_050.obj'... (2313 vertices, 956 unique vertices, 1 materials) 0.0748917s
- loading '../../../Scenes/Blender_2.83/Text_004.obj'... (10584 vertices, 3564 unique vertices, 1 materials) 0.0305285s
- loading '../../../Scenes/Blender_2.83/Power_Meter_1_003.obj'... (18441 vertices, 6795 unique vertices, 7 materials) 0.0416315s
- loading '../../../Scenes/Blender_2.83/boatback_025.obj'... (264 vertices, 298 unique vertices, 1 materials) 0.00290272s
- loading '../../../Scenes/Blender_2.83/boxes_002.obj'... (318 vertices, 315 unique vertices, 1 materials) 0.0314153s
- loading '../../../Scenes/Blender_2.83/Cube_099.obj'... (24264 vertices, 8088 unique vertices, 1 materials) 0.0156174s
- loading '../../../Scenes/Blender_2.83/Cube_066.obj'... (6477 vertices, 8224 unique vertices, 1 materials) 0.0235698s
- loading '../../../Scenes/Blender_2.83/Plane_015.obj'... (36 vertices, 12 unique vertices, 1 materials) 0.038604s
- loading '../../../Scenes/Blender_2.83/_Grill_002.obj'... (5808 vertices, 7512 unique vertices, 1 materials) 0.0328496s
- loading '../../../Scenes/Blender_2.83/Power_Meter_4.obj'... (48414 vertices, 16119 unique vertices, 5 materials) 0.0918773s
- loading '../../../Scenes/Blender_2.83/aaass.obj'... (0 vertices, 0 unique vertices, 1 materials) 0.0488675s
- loading '../../../Scenes/Blender_2.83/Power_Meter_1_001.obj'... (18441 vertices, 6787 unique vertices, 7 materials) 0.0656762s
- loading '../../../Scenes/Blender_2.83/Low_Drift_Complex_Steam_004.obj'... (12 vertices, 4 unique vertices, 1 materials) 0.0029515s
- loading '../../../Scenes/Blender_2.83/Armature_002.obj'... (0 vertices, 0 unique vertices, 1 materials) 0.300858s
- loading '../../../Scenes/Blender_2.83/Cube_047.obj'... (216 vertices, 220 unique vertices, 1 materials) 0.00947391s
- loading '../../../Scenes/Blender_2.83/Armature_004.obj'... (0 vertices, 0 unique vertices, 1 materials) 0.0616625s
- loading '../../../Scenes/Blender_2.83/20191230_134947_014.obj'... (5922 vertices, 5712 unique vertices, 1 materials) 0.0247032s
- loading '../../../Scenes/Blender_2.83/boatback_022.obj'... (546 vertices, 718 unique vertices, 1 materials) 0.046745s
- loading '../../../Scenes/Blender_2.83/Cube_007.obj'... (2100 vertices, 1030 unique vertices, 1 materials) 0.0307434s
- loading '../../../Scenes/Blender_2.83/Cylinder_016.obj'... (852 vertices, 908 unique vertices, 1 materials) 0.0172989s
- loading '../../../Scenes/Blender_2.83/_scaffold_000.obj'... (1068 vertices, 1068 unique vertices, 2 materials) 0.00413693s
- loading '../../../Scenes/Blender_2.83/BezierCurve_011.obj'... (6624 vertices, 1196 unique vertices, 1 materials) 0.0646441s
- loading '../../../Scenes/Blender_2.83/Cube_073.obj'... (1740 vertices, 858 unique vertices, 1 materials) 0.0362598s
- loading '../../../Scenes/Blender_2.83/Cube_094.obj'... (6546 vertices, 2179 unique vertices, 1 materials) 0.0399626s
- loading '../../../Scenes/Blender_2.83/Cube_129.obj'... (156 vertices, 68 unique vertices, 1 materials) 0.00542421s
- loading '../../../Scenes/Blender_2.83/Wall_Electrical_001.obj'... (22710 vertices, 7533 unique vertices, 2 materials) 0.0899889s
- loading '../../../Scenes/Blender_2.83/Cube_031.obj'... (2124 vertices, 856 unique vertices, 1 materials) 0.0479341s
- loading '../../../Scenes/Blender_2.83/Cube_069.obj'... (6477 vertices, 8222 unique vertices, 1 materials) 0.0908631s
- loading '../../../Scenes/Blender_2.83/Cube_045.obj'... (1920 vertices, 640 unique vertices, 1 materials) 0.036121s
- loading '../../../Scenes/Blender_2.83/boatback_011.obj'... (102 vertices, 90 unique vertices, 1 materials) 0.0501583s
- loading '../../../Scenes/Blender_2.83/20191230_134947_007.obj'... (5922 vertices, 5728 unique vertices, 1 materials) 0.0754255s
- loading '../../../Scenes/Blender_2.83/Backpacks_003.obj'... (19938 vertices, 39600 unique vertices, 1 materials) 0.0919367s
- loading '../../../Scenes/Blender_2.83/Cube_062.obj'... (288 vertices, 96 unique vertices, 2 materials) 0.0285424s
- loading '../../../Scenes/Blender_2.83/BezierCurve_028.obj'... (2160 vertices, 724 unique vertices, 4 materials) 0.0513057s
- loading '../../../Scenes/Blender_2.83/Cube_1490.obj'... (1800 vertices, 600 unique vertices, 1 materials) 0.0371154s
- loading '../../../Scenes/Blender_2.83/Cube_051.obj'... (3015 vertices, 1044 unique vertices, 1 materials) 0.0525728s
- loading '../../../Scenes/Blender_2.83/Plane_012.obj'... (329676 vertices, 112397 unique vertices, 3 materials) 0.404081s
- loading '../../../Scenes/Blender_2.83/20191230_134947_004.obj'... (21504 vertices, 21209 unique vertices, 1 materials) 0.0835947s
- loading '../../../Scenes/Blender_2.83/boatback_020.obj'... (1008 vertices, 958 unique vertices, 1 materials) 0.0207151s
- loading '../../../Scenes/Blender_2.83/Plane_976.obj'... (1170 vertices, 1421 unique vertices, 1 materials) 0.0466915s
- loading '../../../Scenes/Blender_2.83/Cube_052.obj'... (156 vertices, 68 unique vertices, 1 materials) 0.0166262s
- loading '../../../Scenes/Blender_2.83/20191230_134947_006.obj'... (5922 vertices, 5722 unique vertices, 1 materials) 0.0658078s
- loading '../../../Scenes/Blender_2.83/BezierCurve_032.obj'... (6120 vertices, 1105 unique vertices, 1 materials) 0.0313826s
- loading '../../../Scenes/Blender_2.83/boatback_019.obj'... (1296 vertices, 882 unique vertices, 1 materials) 0.0230992s
- loading '../../../Scenes/Blender_2.83/Cylinder_023.obj'... (2640 vertices, 1680 unique vertices, 3 materials) 0.0513136s
- loading '../../../Scenes/Blender_2.83/Cylinder_014.obj'... (996 vertices, 1052 unique vertices, 1 materials) 0.00521191s
- loading '../../../Scenes/Blender_2.83/Cube.obj'... (35115 vertices, 30510 unique vertices, 1 materials) 0.115684s
- loading '../../../Scenes/Blender_2.83/Cube_056.obj'... (468 vertices, 378 unique vertices, 3 materials) 0.00989542s
- loading '../../../Scenes/Blender_2.83/BezierCurve_015.obj'... (11304 vertices, 2041 unique vertices, 1 materials) 0.127447s
- loading '../../../Scenes/Blender_2.83/20191230_134947_001.obj'... (21504 vertices, 21239 unique vertices, 1 materials) 0.086868s
- loading '../../../Scenes/Blender_2.83/Cube_084.obj'... (864 vertices, 381 unique vertices, 1 materials) 0.0384391s
- loading '../../../Scenes/Blender_2.83/Cube_070.obj'... (6477 vertices, 8222 unique vertices, 1 materials) 0.0337116s
- loading '../../../Scenes/Blender_2.83/boatback_023.obj'... (264 vertices, 298 unique vertices, 1 materials) 0.0277325s
- loading '../../../Scenes/Blender_2.83/Cube_2182.obj'... (1326 vertices, 1187 unique vertices, 1 materials) 0.0174304s
- loading '../../../Scenes/Blender_2.83/Boss_002.obj'... (89253 vertices, 42613 unique vertices, 1 materials) 0.265104s
- loading '../../../Scenes/Blender_2.83/boatback_017.obj'... (546 vertices, 718 unique vertices, 1 materials) 0.039744s
- loading '../../../Scenes/Blender_2.83/Cube_024.obj'... (3213 vertices, 2075 unique vertices, 1 materials) 0.0441298s
- loading '../../../Scenes/Blender_2.83/Cylinder_070.obj'... (1482 vertices, 554 unique vertices, 1 materials) 0.0436765s
- loading '../../../Scenes/Blender_2.83/_Robot_Flyers.obj'... (1092 vertices, 364 unique vertices, 1 materials) 0.00741666s
- loading '../../../Scenes/Blender_2.83/Cylinder_025.obj'... (2661 vertices, 1651 unique vertices, 3 materials) 0.0229761s
- loading '../../../Scenes/Blender_2.83/BezierCurve_012.obj'... (6624 vertices, 1196 unique vertices, 1 materials) 0.0523007s
- loading '../../../Scenes/Blender_2.83/KaitlinSarong_001.obj'... (79602 vertices, 41748 unique vertices, 1 materials) 0.992353s
- loading '../../../Scenes/Blender_2.83/Armature_001.obj'... (0 vertices, 0 unique vertices, 1 materials) 0.0172405s
- loading '../../../Scenes/Blender_2.83/Cube_053.obj'... (666 vertices, 664 unique vertices, 1 materials) 0.0487792s
- loading '../../../Scenes/Blender_2.83/Power_Meter_1_020.obj'... (18441 vertices, 6787 unique vertices, 7 materials) 0.0398707s
- loading '../../../Scenes/Blender_2.83/Cube_001.obj'... (23580 vertices, 8937 unique vertices, 1 materials) 0.0606824s
- loading '../../../Scenes/Blender_2.83/Power_Meter_1_013.obj'... (6144 vertices, 2376 unique vertices, 7 materials) 0.0570185s
- loading '../../../Scenes/Blender_2.83/boatback_009.obj'... (165 vertices, 117 unique vertices, 1 materials) 0.0255065s
- loading '../../../Scenes/Blender_2.83/Cube_101.obj'... (24264 vertices, 8088 unique vertices, 1 materials) 0.0929817s
- loading '../../../Scenes/Blender_2.83/_Grill_001.obj'... (5808 vertices, 7474 unique vertices, 1 materials) 0.0488671s
- loading '../../../Scenes/Blender_2.83/Rusty_Mounted_Box_1_002.obj'... (2184 vertices, 2230 unique vertices, 6 materials) 0.0841281s
- loading '../../../Scenes/Blender_2.83/Cylinder_039.obj'... (1482 vertices, 554 unique vertices, 1 materials) 0.0412005s
- loading '../../../Scenes/Blender_2.83/Cube_105.obj'... (12012 vertices, 15278 unique vertices, 2 materials) 0.0628463s
- loading '../../../Scenes/Blender_2.83/Cylinder_005.obj'... (804 vertices, 844 unique vertices, 1 materials) 0.0131329s
- loading '../../../Scenes/Blender_2.83/Cylinder_001.obj'... (852 vertices, 900 unique vertices, 1 materials) 0.0138363s
- loading '../../../Scenes/Blender_2.83/Backpacks.obj'... (22251 vertices, 44033 unique vertices, 1 materials) 0.111825s
- loading '../../../Scenes/Blender_2.83/Cube_103.obj'... (11994 vertices, 14468 unique vertices, 2 materials) 0.0706899s
- loading '../../../Scenes/Blender_2.83/Cube_032.obj'... (318 vertices, 306 unique vertices, 1 materials) 0.0445662s
- loading '../../../Scenes/Blender_2.83/Cube_025.obj'... (2088 vertices, 1312 unique vertices, 2 materials) 0.0349792s
- loading '../../../Scenes/Blender_2.83/Mounted_Box_2_001.obj'... (4167 vertices, 1401 unique vertices, 1 materials) 0.0132437s
- loading '../../../Scenes/Blender_2.83/Cube_057.obj'... (468 vertices, 378 unique vertices, 3 materials) 0.0189293s
- loading '../../../Scenes/Blender_2.83/Power_Meter_1_005.obj'... (6144 vertices, 2370 unique vertices, 7 materials) 0.0362607s
- loading '../../../Scenes/Blender_2.83/Cylinder_013.obj'... (852 vertices, 908 unique vertices, 1 materials) 0.0124161s
- loading '../../../Scenes/Blender_2.83/Cube_058.obj'... (24 vertices, 24 unique vertices, 1 materials) 0.0628436s
- loading '../../../Scenes/Blender_2.83/Cube_046.obj'... (216 vertices, 220 unique vertices, 1 materials) 0.0429421s
- loading '../../../Scenes/Blender_2.83/boatback_001.obj'... (546 vertices, 718 unique vertices, 1 materials) 0.00360646s
- loading '../../../Scenes/Blender_2.83/Cylinder_003.obj'... (804 vertices, 844 unique vertices, 1 materials) 0.00916724s
- loading '../../../Scenes/Blender_2.83/boatback_002.obj'... (735 vertices, 469 unique vertices, 1 materials) 0.181117s
- loading '../../../Scenes/Blender_2.83/boatback_012.obj'... (102 vertices, 90 unique vertices, 1 materials) 0.0118184s
- loading '../../../Scenes/Blender_2.83/Cube_115.obj'... (4428 vertices, 2494 unique vertices, 3 materials) 0.0402478s
- loading '../../../Scenes/Blender_2.83/Cylinder_066.obj'... (8856 vertices, 3126 unique vertices, 5 materials) 0.0193824s
- loading '../../../Scenes/Blender_2.83/Cylinder_031.obj'... (288 vertices, 360 unique vertices, 1 materials) 0.00906095s
- loading '../../../Scenes/Blender_2.83/Text_003.obj'... (11808 vertices, 3983 unique vertices, 1 materials) 0.027443s
- loading '../../../Scenes/Blender_2.83/Cylinder_026.obj'... (72 vertices, 64 unique vertices, 3 materials) 0.00820775s
- loading '../../../Scenes/Blender_2.83/Cylinder_019.obj'... (804 vertices, 850 unique vertices, 1 materials) 0.00310744s
- loading '../../../Scenes/Blender_2.83/20191230_134947_008.obj'... (5922 vertices, 5756 unique vertices, 1 materials) 0.0507004s
- loading '../../../Scenes/Blender_2.83/Cube_010.obj'... (312 vertices, 312 unique vertices, 1 materials) 0.0517187s
- loading '../../../Scenes/Blender_2.83/Cube_133.obj'... (156 vertices, 68 unique vertices, 1 materials) 0.00330962s
- loading '../../../Scenes/Blender_2.83/The_Water.obj'... (12 vertices, 4 unique vertices, 1 materials) 0.0300739s
- loading '../../../Scenes/Blender_2.83/20191230_134947_003.obj'... (21504 vertices, 21214 unique vertices, 1 materials) 0.0921357s
done loading
- loading '../assets/textures/white.png'... (1 x 1 x 3) 0.0171804s
RTV: Creating device buffer Vertices of size 70442964
LVP: vkBuffer size 70442964 created at 0x563d0d461ec8
RTV: New vkBuffer created at 0x563d0d461ec8
LLVM: llvmpipe_resource_bind_backing: pipe_screen 0x563d0c8c53c0; pipe_resource 0x563d1104ea90; llvmpipe_resource 0x563d1104ea90; pipe_memory_allocation 0x153f8e0c3000;
LVP: Binding lvp_buffer 0x563d0cba5e40: buffer->bo: 0x563d1104ea90; buffer->pmem: 0x153f8e0c3000; memory-offset: 0;


        *** GPGPU-Sim Simulator Version 4.0.0 - Vulkan-Sim version 2.0.0  [build gpgpu-sim_git-commit-dc742faa6e5fcfaf415fe51eab71dcf9345388fd_modified_1.0] ***


GPGPU-Sim PTX: simulation mode 0 (can change with PTX_SIM_MODE_FUNC environment variable:
               1=functional simulation only, 0=detailed performance simulator)
GPGPU-Sim PTX: overriding embedded ptx with ptx file (PTX_SIM_USE_PTX_FILE is set)
GPGPU-Sim: Configuration options:

-save_embedded_ptx                      0 # saves ptx files embedded in binary as <n>.ptx
-keep                                   0 # keep intermediate files created by GPGPU-Sim when interfacing with external programs
-gpgpu_ptx_save_converted_ptxplus                    0 # Saved converted ptxplus to a file
-gpgpu_occupancy_sm_number                   75 # The SM number to pass to ptxas when getting register usage for computing GPU occupancy. This parameter is required in the config.
-ptx_opcode_latency_int      4,13,4,5,145,32 # Opcode latencies for integers <ADD,MAX,MUL,MAD,DIV,SHFL>Default 1,1,19,25,145,32
-ptx_opcode_latency_fp          4,13,4,5,39 # Opcode latencies for single precision floating points <ADD,MAX,MUL,MAD,DIV>Default 1,1,1,1,30
-ptx_opcode_latency_dp         8,19,8,8,330 # Opcode latencies for double precision floating points <ADD,MAX,MUL,MAD,DIV>Default 8,8,8,8,335
-ptx_opcode_latency_sfu                  100 # Opcode latencies for SFU instructionsDefault 8
-ptx_opcode_latency_tesnor                   64 # Opcode latencies for Tensor instructionsDefault 64
-ptx_opcode_initiation_int          2,2,2,2,8,4 # Opcode initiation intervals for integers <ADD,MAX,MUL,MAD,DIV,SHFL>Default 1,1,4,4,32,4
-ptx_opcode_initiation_fp            2,2,2,2,4 # Opcode initiation intervals for single precision floating points <ADD,MAX,MUL,MAD,DIV>Default 1,1,1,1,5
-ptx_opcode_initiation_dp          4,4,4,4,130 # Opcode initiation intervals for double precision floating points <ADD,MAX,MUL,MAD,DIV>Default 8,8,8,8,130
-ptx_opcode_initiation_sfu                    8 # Opcode initiation intervals for sfu instructionsDefault 8
-ptx_opcode_initiation_tensor                   64 # Opcode initiation intervals for tensor instructionsDefault 64
-cdp_latency         7200,8000,100,12000,1600 # CDP API latency <cudaStreamCreateWithFlags, cudaGetParameterBufferV2_init_perWarp, cudaGetParameterBufferV2_perKernel, cudaLaunchDeviceV2_init_perWarp, cudaLaunchDevicV2_perKernel>Default 7200,8000,100,12000,1600
-network_mode                           2 # Interconnection network mode
-inter_config_file                   mesh # Interconnection network config file
-icnt_in_buffer_limit                  512 # in_buffer_limit
-icnt_out_buffer_limit                  512 # out_buffer_limit
-icnt_subnets                           2 # subnets
-icnt_arbiter_algo                      1 # arbiter_algo
-icnt_verbose                           0 # inct_verbose
-icnt_grant_cycles                      1 # grant_cycles
-gpgpu_ptx_use_cuobjdump                    1 # Use cuobjdump to extract ptx and sass from binaries
-gpgpu_experimental_lib_support                    0 # Try to extract code from cuda libraries [Broken because of unknown cudaGetExportTable]
-checkpoint_option                      0 #  checkpointing flag (0 = no checkpoint)
-checkpoint_kernel                      1 #  checkpointing during execution of which kernel (1- 1st kernel)
-checkpoint_CTA                         0 #  checkpointing after # of CTA (< less than total CTA)
-resume_option                          0 #  resume flag (0 = no resume)
-resume_kernel                          0 #  Resume from which kernel (1= 1st kernel)
-resume_CTA                             0 #  resume from which CTA 
-checkpoint_CTA_t                       0 #  resume from which CTA 
-checkpoint_insn_Y                      0 #  resume from which CTA 
-gpgpu_ptx_convert_to_ptxplus                    0 # Convert SASS (native ISA) to ptxplus and run ptxplus
-gpgpu_ptx_force_max_capability                   75 # Force maximum compute capability
-gpgpu_ptx_inst_debug_to_file                    0 # Dump executed instructions' debug information to file
-gpgpu_ptx_inst_debug_file       inst_debug.txt # Executed instructions' debug output file
-gpgpu_ptx_inst_debug_thread_uid                    1 # Thread UID for executed instructions' debug output
-gpgpu_simd_model                       1 # 1 = post-dominator
-gpgpu_simd_rec_time_out                   -1 # -1 = no reconvergence time out
-gpgpu_simd_rec_size                    6 # number of physical entries in the reconvergence table
-gpgpu_simd_st_size                     6 # number of physical entries in the splits table
-gpgpu_simd_rec_replacement                    0 # reconvergence table replacement policy
-gpgpu_simd_st_replacement                    0 # splits table replacement policy
-gpgpu_shader_core_pipeline              1024:32 # shader core pipeline config, i.e., {<nthread>:<warpsize>}
-gpgpu_tex_cache:l1  N:4:128:256,L:R:m:N:L,T:512:8,128:2 # per-shader L1 texture cache  (READ-ONLY) config  {<nsets>:<bsize>:<assoc>,<rep>:<wr>:<alloc>:<wr_alloc>,<mshr>:<N>:<merge>,<mq>:<rf>}
-gpgpu_const_cache:l1 N:128:64:8,L:R:f:N:L,S:2:64,4 # per-shader L1 constant memory cache  (READ-ONLY) config  {<nsets>:<bsize>:<assoc>,<rep>:<wr>:<alloc>:<wr_alloc>,<mshr>:<N>:<merge>,<mq>} 
-gpgpu_rt_cache:l1   S:32:128:16,L:R:m:L:P,A:256:256,32:0,32 # per-shader L1 constant memory cache  (READ-ONLY) config  {<nsets>:<bsize>:<assoc>,<rep>:<wr>:<alloc>:<wr_alloc>,<mshr>:<N>:<merge>,<mq>} 
-gpgpu_rt_use_l1                        1 # use existing L1 cache instead of dedicated L0 cache 
-gpgpu_rt_perfect_mem                    0 # assume 0 latency BVH accesses 
-gpgpu_rt_coherence_engine                    0 # enable coherency engine (ray sorting) 
-gpgpu_rt_coherence_engine_config 100,10,16,g,0,3,2,0.25 # max cycles, hash 
-gpgpu_rt_disable_rt_cache                    0 # bypass RT cache and connect RT unit directly to interconnect 
-gpgpu_rt_max_warps                     4 # max number of warps concurrently in one rt core 
-gpgpu_rt_max_mshr                     64 # max number of MSHR entries in RT unit 
-gpgpu_rt_coalesce_warps                    0 # try to coalesce memory requests between warps 
-gpgpu_rt_intersection_latency        4,8,8,4,8,8,8 # latency of pipelined intersection tests (7 types)
-gpgpu_rt_intersection_table_type                    0 # type of intersection table
-gpgpu_cache:il1     N:64:128:16,L:R:f:N:L,S:2:48,4 # shader L1 instruction cache config  {<nsets>:<bsize>:<assoc>,<rep>:<wr>:<alloc>:<wr_alloc>,<mshr>:<N>:<merge>,<mq>} 
-gpgpu_cache:dl1     S:1:128:256,L:L:s:N:L,A:256:8,16:0,32 # per-shader L1 data cache config  {<nsets>:<bsize>:<assoc>,<rep>:<wr>:<alloc>:<wr_alloc>,<mshr>:<N>:<merge>,<mq> | none}
-gpgpu_l1_banks                         4 # The number of L1 cache banks
-gpgpu_l1_banks_byte_interleaving                   32 # l1 banks byte interleaving granularity
-gpgpu_l1_banks_hashing_function                    0 # l1 banks hashing function
-gpgpu_l1_latency                      20 # L1 Hit Latency
-gpgpu_smem_latency                    20 # smem Latency
-gpgpu_cache:dl1PrefL1                 none # per-shader L1 data cache config  {<nsets>:<bsize>:<assoc>,<rep>:<wr>:<alloc>:<wr_alloc>,<mshr>:<N>:<merge>,<mq> | none}
-gpgpu_cache:dl1PrefShared                 none # per-shader L1 data cache config  {<nsets>:<bsize>:<assoc>,<rep>:<wr>:<alloc>:<wr_alloc>,<mshr>:<N>:<merge>,<mq> | none}
-gpgpu_gmem_skip_L1D                    0 # global memory access skip L1D cache (implements -Xptxas -dlcm=cg, default=no skip)
-gpgpu_perfect_mem                      0 # enable perfect memory mode (no cache miss)
-n_regfile_gating_group                    4 # group of lanes that should be read/written together)
-gpgpu_clock_gated_reg_file                    0 # enable clock gated reg file for power calculations
-gpgpu_clock_gated_lanes                    0 # enable clock gated lanes for power calculations
-gpgpu_shader_registers                32768 # Number of registers per shader core. Limits number of concurrent CTAs. (default 8192)
-gpgpu_registers_per_block                32768 # Maximum number of registers per CTA. (default 8192)
-gpgpu_ignore_resources_limitation                    0 # gpgpu_ignore_resources_limitation (default 0)
-gpgpu_shader_cta                      16 # Maximum number of concurrent CTAs in shader (default 8)
-gpgpu_num_cta_barriers                   16 # Maximum number of named barriers per CTA (default 16)
-gpgpu_n_clusters                       8 # number of processing clusters
-gpgpu_n_cores_per_cluster                    1 # number of simd cores per cluster
-gpgpu_n_cluster_ejection_buffer_size                   32 # number of packets in ejection buffer
-gpgpu_n_ldst_response_buffer_size                    2 # number of response packets in ld/st unit ejection buffer
-gpgpu_shmem_per_block                65536 # Size of shared memory per thread block or CTA (default 48kB)
-gpgpu_shmem_size                   65536 # Size of shared memory per shader core (default 16kB)
-gpgpu_adaptive_cache_config                    0 # adaptive_cache_config
-gpgpu_shmem_sizeDefault                65536 # Size of shared memory per shader core (default 16kB)
-gpgpu_shmem_size_PrefL1                16384 # Size of shared memory per shader core (default 16kB)
-gpgpu_shmem_size_PrefShared                16384 # Size of shared memory per shader core (default 16kB)
-gpgpu_shmem_num_banks                   32 # Number of banks in the shared memory in each shader core (default 16)
-gpgpu_shmem_limited_broadcast                    0 # Limit shared memory to do one broadcast per cycle (default on)
-gpgpu_shmem_warp_parts                    1 # Number of portions a warp is divided into for shared memory bank conflict check 
-gpgpu_mem_unit_ports                    1 # The number of memory transactions allowed per core cycle
-gpgpu_shmem_warp_parts                    1 # Number of portions a warp is divided into for shared memory bank conflict check 
-gpgpu_warpdistro_shader                   -1 # Specify which shader core to collect the warp size distribution from
-gpgpu_warp_issue_shader                    0 # Specify which shader core to collect the warp issue distribution from
-gpgpu_local_mem_map                    1 # Mapping from local memory space address to simulated GPU physical address space (default = enabled)
-gpgpu_num_reg_banks                   16 # Number of register banks (default = 8)
-gpgpu_reg_bank_use_warp_id                    0 # Use warp ID in mapping registers to banks (default = off)
-gpgpu_sub_core_model                    1 # Sub Core Volta/Pascal model (default = off)
-gpgpu_enable_specialized_operand_collector                    0 # enable_specialized_operand_collector
-gpgpu_operand_collector_num_units_sp                    4 # number of collector units (default = 4)
-gpgpu_operand_collector_num_units_dp                    0 # number of collector units (default = 0)
-gpgpu_operand_collector_num_units_sfu                    4 # number of collector units (default = 4)
-gpgpu_operand_collector_num_units_int                    0 # number of collector units (default = 0)
-gpgpu_operand_collector_num_units_tensor_core                    4 # number of collector units (default = 4)
-gpgpu_operand_collector_num_units_mem                    2 # number of collector units (default = 2)
-gpgpu_operand_collector_num_units_gen                    8 # number of collector units (default = 0)
-gpgpu_operand_collector_num_in_ports_sp                    1 # number of collector unit in ports (default = 1)
-gpgpu_operand_collector_num_in_ports_dp                    0 # number of collector unit in ports (default = 0)
-gpgpu_operand_collector_num_in_ports_sfu                    1 # number of collector unit in ports (default = 1)
-gpgpu_operand_collector_num_in_ports_int                    0 # number of collector unit in ports (default = 0)
-gpgpu_operand_collector_num_in_ports_tensor_core                    1 # number of collector unit in ports (default = 1)
-gpgpu_operand_collector_num_in_ports_mem                    1 # number of collector unit in ports (default = 1)
-gpgpu_operand_collector_num_in_ports_gen                    8 # number of collector unit in ports (default = 0)
-gpgpu_operand_collector_num_out_ports_sp                    1 # number of collector unit in ports (default = 1)
-gpgpu_operand_collector_num_out_ports_dp                    0 # number of collector unit in ports (default = 0)
-gpgpu_operand_collector_num_out_ports_sfu                    1 # number of collector unit in ports (default = 1)
-gpgpu_operand_collector_num_out_ports_int                    0 # number of collector unit in ports (default = 0)
-gpgpu_operand_collector_num_out_ports_tensor_core                    1 # number of collector unit in ports (default = 1)
-gpgpu_operand_collector_num_out_ports_mem                    1 # number of collector unit in ports (default = 1)
-gpgpu_operand_collector_num_out_ports_gen                    8 # number of collector unit in ports (default = 0)
-gpgpu_coalesce_arch                   75 # Coalescing arch (GT200 = 13, Fermi = 20)
-gpgpu_num_sched_per_core                    4 # Number of warp schedulers per core
-gpgpu_max_insn_issue_per_warp                    1 # Max number of instructions that can be issued per warp in one cycle by scheduler (either 1 or 2)
-gpgpu_dual_issue_diff_exec_units                    1 # should dual issue use two different execution unit resources (Default = 1)
-gpgpu_simt_core_sim_order                    1 # Select the simulation order of cores in a cluster (0=Fix, 1=Round-Robin)
-gpgpu_pipeline_widths 4,0,4,4,4,4,0,4,4,4,8,4,4,4,4 # Pipeline widths ID_OC_SP,ID_OC_DP,ID_OC_INT,ID_OC_SFU,ID_OC_MEM,OC_EX_SP,OC_EX_DP,OC_EX_INT,OC_EX_SFU,OC_EX_MEM,EX_WB,ID_OC_TENSOR_CORE,OC_EX_TENSOR_CORE,ID_OC_RT,OC_EX_RT
-gpgpu_tensor_core_avail                    1 # Tensor Core Available (default=0)
-gpgpu_num_sp_units                     4 # Number of SP units (default=1)
-gpgpu_num_dp_units                     0 # Number of DP units (default=0)
-gpgpu_num_int_units                    4 # Number of INT units (default=0)
-gpgpu_num_sfu_units                    4 # Number of SF units (default=1)
-gpgpu_num_tensor_core_units                    4 # Number of tensor_core units (default=1)
-gpgpu_num_rt_core_units                    1 # Number of rt core units (default=1)
-gpgpu_num_mem_units                    1 # Number if ldst units (default=1) WARNING: not hooked up to anything
-gpgpu_scheduler                      gto # Scheduler configuration: < lrr | gto | two_level_active > If two_level_active:<num_active_warps>:<inner_prioritization>:<outer_prioritization>For complete list of prioritization values see shader.h enum scheduler_prioritization_typeDefault: gto
-gpgpu_concurrent_kernel_sm                    0 # Support concurrent kernels on a SM (default = disabled)
-gpgpu_perfect_inst_const_cache                    1 # perfect inst and const cache mode, so all inst and const hits in the cache(default = disabled)
-gpgpu_inst_fetch_throughput                    4 # the number of fetched intruction per warp each cycle
-gpgpu_reg_file_port_throughput                    2 # the number ports of the register file
-specialized_unit_1         0,4,4,4,4,BRA # specialized unit config {<enabled>,<num_units>:<latency>:<initiation>,<ID_OC_SPEC>:<OC_EX_SPEC>,<NAME>}
-specialized_unit_2         0,4,4,4,4,BRA # specialized unit config {<enabled>,<num_units>:<latency>:<initiation>,<ID_OC_SPEC>:<OC_EX_SPEC>,<NAME>}
-specialized_unit_3         0,4,4,4,4,BRA # specialized unit config {<enabled>,<num_units>:<latency>:<initiation>,<ID_OC_SPEC>:<OC_EX_SPEC>,<NAME>}
-specialized_unit_4         0,4,4,4,4,BRA # specialized unit config {<enabled>,<num_units>:<latency>:<initiation>,<ID_OC_SPEC>:<OC_EX_SPEC>,<NAME>}
-specialized_unit_5         0,4,4,4,4,BRA # specialized unit config {<enabled>,<num_units>:<latency>:<initiation>,<ID_OC_SPEC>:<OC_EX_SPEC>,<NAME>}
-specialized_unit_6         0,4,4,4,4,BRA # specialized unit config {<enabled>,<num_units>:<latency>:<initiation>,<ID_OC_SPEC>:<OC_EX_SPEC>,<NAME>}
-specialized_unit_7         0,4,4,4,4,BRA # specialized unit config {<enabled>,<num_units>:<latency>:<initiation>,<ID_OC_SPEC>:<OC_EX_SPEC>,<NAME>}
-specialized_unit_8         0,4,4,4,4,BRA # specialized unit config {<enabled>,<num_units>:<latency>:<initiation>,<ID_OC_SPEC>:<OC_EX_SPEC>,<NAME>}
-gpgpu_perf_sim_memcpy                    1 # Fill the L2 cache on memcpy
-gpgpu_simple_dram_model                    0 # simple_dram_model with fixed latency and BW
-gpgpu_dram_scheduler                    1 # 0 = fifo, 1 = FR-FCFS (defaul)
-gpgpu_dram_partition_queues          64:64:64:64 # i2$:$2d:d2$:$2i
-l2_ideal                               0 # Use a ideal L2 cache that always hit
-gpgpu_cache:dl2     S:64:128:16,L:B:m:L:P,A:192:4,32:0,32 # unified banked L2 data cache config  {<nsets>:<bsize>:<assoc>,<rep>:<wr>:<alloc>:<wr_alloc>,<mshr>:<N>:<merge>,<mq>}
-gpgpu_cache:dl2_texture_only                    0 # L2 cache used for texture only
-gpgpu_n_mem                            4 # number of memory modules (e.g. memory controllers) in gpu
-gpgpu_n_sub_partition_per_mchannel                    1 # number of memory subpartition in each memory module
-gpgpu_n_mem_per_ctrlr                    1 # number of memory chips per memory controller
-gpgpu_memlatency_stat                   14 # track and display latency statistics 0x2 enables MC, 0x4 enables queue logs
-gpgpu_frfcfs_dram_sched_queue_size                   64 # 0 = unlimited (default); # entries per chip
-gpgpu_dram_return_queue_size                  192 # 0 = unlimited (default); # entries per chip
-gpgpu_dram_buswidth                    2 # default = 4 bytes (8 bytes per cycle at DDR)
-gpgpu_dram_burst_length                    8 # Burst length of each DRAM request (default = 4 data bus cycle)
-dram_data_command_freq_ratio                    2 # Frequency ratio between DRAM data bus and command bus (default = 2 times, i.e. DDR)
-gpgpu_dram_timing_opt nbk=16:CCD=4:RRD=10:RCD=20:RAS=50:RP=20:RC=62: CL=20:WL=8:CDLR=9:WR=20:nbkgrp=4:CCDL=4:RTPL=4 # DRAM timing parameters = {nbk:tCCD:tRRD:tRCD:tRAS:tRP:tRC:CL:WL:tCDLR:tWR:nbkgrp:tCCDL:tRTPL}
-gpgpu_l2_rop_latency                  160 # ROP queue latency (default 85)
-dram_latency                         100 # DRAM latency (default 30)
-dram_dual_bus_interface                    0 # dual_bus_interface (default = 0) 
-dram_bnk_indexing_policy                    0 # dram_bnk_indexing_policy (0 = normal indexing, 1 = Xoring with the higher bits) (Default = 0)
-dram_bnkgrp_indexing_policy                    1 # dram_bnkgrp_indexing_policy (0 = take higher bits, 1 = take lower bits) (Default = 0)
-dram_seperate_write_queue_enable                    0 # Seperate_Write_Queue_Enable
-dram_write_queue_size             32:28:16 # Write_Queue_Size
-dram_elimnate_rw_turnaround                    0 # elimnate_rw_turnaround i.e set tWTR and tRTW = 0
-icnt_flit_size                        40 # icnt_flit_size
-gpgpu_mem_addr_mapping dramid@8;00000000.00000000.00000000.00000000.0000RRRR.RRRRRRRR.RBBBCCCC.BCCSSSSS # mapping memory address to dram model {dramid@<start bit>;<memory address map>}
-gpgpu_mem_addr_test                    0 # run sweep test to check address mapping for aliased address
-gpgpu_mem_address_mask                    1 # 0 = old addressing mask, 1 = new addressing mask, 2 = new add. mask + flipped bank sel and chip sel bits
-gpgpu_memory_partition_indexing                    0 # 0 = no indexing, 1 = bitwise xoring, 2 = IPoly, 3 = custom indexing
-gpuwattch_xml_file         gpuwattch.xml # GPUWattch XML file
-power_simulation_enabled                    0 # Turn on power simulator (1=On, 0=Off)
-power_per_cycle_dump                    0 # Dump detailed power output each cycle
-power_trace_enabled                    1 # produce a file for the power trace (1=On, 0=Off)
-power_trace_zlevel                     6 # Compression level of the power trace output log (0=no comp, 9=highest)
-steady_power_levels_enabled                    1 # produce a file for the steady power levels (1=On, 0=Off)
-steady_state_definition                  8:4 # allowed deviation:number of samples
-gpgpu_intermittent_stats                    0 # print intermittent stats
-gpgpu_intermittent_stats_freq                10000 # intermittent stats frequency
-gpgpu_max_cycle                        0 # terminates gpu simulation early (0 = no limit)
-gpgpu_max_insn                         0 # terminates gpu simulation early (0 = no limit)
-gpgpu_max_cta                          0 # terminates gpu simulation early (0 = no limit)
-gpgpu_max_completed_cta                    0 # terminates gpu simulation early (0 = no limit)
-gpgpu_runtime_stat                   500 # display runtime statistics such as dram utilization {<freq>:<flag>}
-liveness_message_freq                    1 # Minimum number of seconds between simulation liveness messages (0 = always print)
-gpgpu_compute_capability_major                    7 # Major compute capability version number
-gpgpu_compute_capability_minor                    5 # Minor compute capability version number
-gpgpu_flush_l1_cache                    1 # Flush L1 cache at the end of each kernel call
-gpgpu_flush_l2_cache                    0 # Flush L2 cache at the end of each kernel call
-gpgpu_deadlock_detect                    1 # Stop the simulation at deadlock (1=on (default), 0=off)
-gpgpu_ptx_instruction_classification                    1 # if enabled will classify ptx instruction types per kernel (Max 255 kernels now)
-gpgpu_ptx_sim_mode                     1 # Select between Performance (default) or Functional simulation (1)
-gpgpu_clock_domains 1365.0:1365.0:1365.0:3500.0 # Clock Domain Frequencies in MhZ {<Core Clock>:<ICNT Clock>:<L2 Clock>:<DRAM Clock>}
-gpgpu_max_concurrent_kernel                    8 # maximum kernels that can run concurrently on GPU
-gpgpu_cflog_interval                    0 # Interval between each snapshot in control flow logger
-visualizer_enabled                     0 # Turn on visualizer output (1=On, 0=Off)
-visualizer_outputfile       regular_ship16 # Specifies the output log file for visualizer
-visualizer_zlevel                      6 # Compression level of the visualizer output log (0=no comp, 9=highest)
-gpgpu_stack_size_limit                 1024 # GPU thread stack size
-gpgpu_heap_size_limit              8388608 # GPU malloc heap size 
-gpgpu_runtime_sync_depth_limit                    2 # GPU device runtime synchronize depth
-gpgpu_runtime_pending_launch_count_limit                 2048 # GPU device runtime pending launch count
-trace_enabled                          0 # Turn on traces
-trace_components                    none # comma seperated list of traces to enable. Complete list found in trace_streams.tup. Default none
-trace_sampling_core                    0 # The core which is printed using CORE_DPRINTF. Default 0
-trace_sampling_memory_partition                   -1 # The memory partition which is printed using MEMPART_DPRINTF. Default -1 (i.e. all)
-enable_ptx_file_line_stats                    1 # Turn on PTX source line statistic profiling. (1 = On)
-ptx_line_stats_filename gpgpu_inst_stats.txt # Output file for PTX source line statistics.
-gpgpu_kernel_launch_latency                 5000 # Kernel launch latency in cycles. Default: 0
-gpgpu_cdp_enabled                      0 # Turn on CDP
-gpgpu_TB_launch_latency                    0 # thread block launch latency in cycles. Default: 0
-gpgpu_max_simulated_rt_kernels                    1 # Max simulated kernels, used to limit how many frames we render. Default: 0
Streaming cache with 4096 mshr
GPGPU-Sim: Ray Coherence Engine Settings:
	Enabled: No
	Max cycles: 100
	Max packets: 16
	Sorting hash: grid-spherical
	Bits: 3-2
DRAM Timing Options:
nbk                                    16 # number of banks
CCD                                     4 # column to column delay
RRD                                    10 # minimal delay between activation of rows in different banks
RCD                                    20 # row to column delay
RAS                                    50 # time needed to activate row
RP                                     20 # time needed to precharge (deactivate) row
RC                                     62 # row cycle time
CDLR                                    9 # switching from write to read (changes tWTR)
WR                                     20 # last data-in to row precharge
CL                                     20 # CAS latency
WL                                      8 # Write latency
nbkgrp                                  4 # number of bank groups
CCDL                                    4 # column to column delay between accesses to different bank groups
RTPL                                    4 # read to precharge delay between accesses to different bank groups
Total number of memory sub partition = 4
addr_dec_mask[CHIP]  = 0000000000000300 	high:10 low:8
addr_dec_mask[BK]    = 000000000001c080 	high:17 low:7
addr_dec_mask[ROW]   = 000000003ffe0000 	high:30 low:17
addr_dec_mask[COL]   = 0000000000003c7f 	high:14 low:0
addr_dec_mask[BURST] = 000000000000001f 	high:5 low:0
sub_partition_id_mask = 0000000000000000
GPGPU-Sim uArch: clock freqs: 1365000000.000000:1365000000.000000:1365000000.000000:3500000000.000000
GPGPU-Sim uArch: clock periods: 0.00000000073260073260:0.00000000073260073260:0.00000000073260073260:0.00000000028571428571
*** Initializing Memory Statistics ***
GPGPU-Sim uArch: performance model initialization complete.
gpgpusim: binding gpgpusim buffer 0xc0000000 (size 70442964) to vulkan buffer 0x153f8e0c3000
LVP: gpgpusim buffer size 70442964 allocated at 0xc0000000
RTV: Bind buffer memory for vkBuffer 0x563d0d461ec8
LVP: vkBuffer size 70442964 created at 0x563d147c3fa8
RTV: New vkBuffer created at 0x563d147c3fa8
LLVM: llvmpipe_resource_bind_backing: pipe_screen 0x563d0c8c53c0; pipe_resource 0x563d258a6b40; llvmpipe_resource 0x563d258a6b40; pipe_memory_allocation 0x153f89d93000;
LVP: Binding lvp_buffer 0x563d258a6ac0: buffer->bo: 0x563d258a6b40; buffer->pmem: 0x153f89d93000; memory-offset: 0;
gpgpusim: binding gpgpusim buffer 0xc432e000 (size 70442964) to vulkan buffer 0x153f89d93000
LVP: gpgpusim buffer size 70442964 allocated at 0xc432e000
RTV: Bind buffer memory for vkBuffer 0x563d147c3fa8
LVP: Finding mapped memory for mem 0x563d258a6d50: mem->pmem 0x153f89d93000 
LVP: Identified at 0x153f89d93000
LVP: Command Buffer:
	VK_CMD_COPY_BUFFER2
RTV: Creating device buffer Indices of size 20703720
LVP: vkBuffer size 20703720 created at 0x563d147c3fa8
RTV: New vkBuffer created at 0x563d147c3fa8
LLVM: llvmpipe_resource_bind_backing: pipe_screen 0x563d0c8c53c0; pipe_resource 0x563d36560760; llvmpipe_resource 0x563d36560760; pipe_memory_allocation 0x563d36561000;
LVP: Binding lvp_buffer 0x563d258a6d50: buffer->bo: 0x563d36560760; buffer->pmem: 0x563d36561000; memory-offset: 0;
gpgpusim: binding gpgpusim buffer 0xc865c000 (size 20703720) to vulkan buffer 0x563d36561000
LVP: gpgpusim buffer size 20703720 allocated at 0xc865c000
RTV: Bind buffer memory for vkBuffer 0x563d147c3fa8
LVP: vkBuffer size 20703720 created at 0x563d3655ed78
RTV: New vkBuffer created at 0x563d3655ed78
LLVM: llvmpipe_resource_bind_backing: pipe_screen 0x563d0c8c53c0; pipe_resource 0x563d3c819ab0; llvmpipe_resource 0x563d3c819ab0; pipe_memory_allocation 0x563d3c81a000;
LVP: Binding lvp_buffer 0x563d36560630: buffer->bo: 0x563d3c819ab0; buffer->pmem: 0x563d3c81a000; memory-offset: 0;
gpgpusim: binding gpgpusim buffer 0xc9a1aa00 (size 20703720) to vulkan buffer 0x563d3c81a000
LVP: gpgpusim buffer size 20703720 allocated at 0xc9a1aa00
RTV: Bind buffer memory for vkBuffer 0x563d3655ed78
LVP: Finding mapped memory for mem 0x563d3c819cc0: mem->pmem 0x563d3c81a000 
LVP: Identified at 0x563d3c81a000
LVP: Command Buffer:
	VK_CMD_COPY_BUFFER2
RTV: Creating device buffer Materials of size 18432
LVP: vkBuffer size 18432 created at 0x563d3655ed78
RTV: New vkBuffer created at 0x563d3655ed78
LLVM: llvmpipe_resource_bind_backing: pipe_screen 0x563d0c8c53c0; pipe_resource 0x563d3c81a000; llvmpipe_resource 0x563d3c81a000; pipe_memory_allocation 0x563d3c81b000;
LVP: Binding lvp_buffer 0x563d3c819cc0: buffer->bo: 0x563d3c81a000; buffer->pmem: 0x563d3c81b000; memory-offset: 0;
gpgpusim: binding gpgpusim buffer 0xcadd9400 (size 18432) to vulkan buffer 0x563d3c81b000
LVP: gpgpusim buffer size 18432 allocated at 0xcadd9400
RTV: Bind buffer memory for vkBuffer 0x563d3655ed78
LVP: vkBuffer size 18432 created at 0x563d42ad31d8
RTV: New vkBuffer created at 0x563d42ad31d8
LLVM: llvmpipe_resource_bind_backing: pipe_screen 0x563d0c8c53c0; pipe_resource 0x563d3c830c10; llvmpipe_resource 0x563d3c830c10; pipe_memory_allocation 0x563d3c831000;
LVP: Binding lvp_buffer 0x563d42ad3300: buffer->bo: 0x563d3c830c10; buffer->pmem: 0x563d3c831000; memory-offset: 0;
gpgpusim: binding gpgpusim buffer 0xcadddc00 (size 18432) to vulkan buffer 0x563d3c831000
LVP: gpgpusim buffer size 18432 allocated at 0xcadddc00
RTV: Bind buffer memory for vkBuffer 0x563d42ad31d8
LVP: Finding mapped memory for mem 0x563d3c830e20: mem->pmem 0x563d3c831000 
LVP: Identified at 0x563d3c831000
LVP: Command Buffer:
	VK_CMD_COPY_BUFFER2
RTV: Creating device buffer Offsets of size 2560
LVP: vkBuffer size 2560 created at 0x563d42ad31d8
RTV: New vkBuffer created at 0x563d42ad31d8
LLVM: llvmpipe_resource_bind_backing: pipe_screen 0x563d0c8c53c0; pipe_resource 0x563d3c831000; llvmpipe_resource 0x563d3c831000; pipe_memory_allocation 0x563d3c832000;
LVP: Binding lvp_buffer 0x563d3c830e20: buffer->bo: 0x563d3c831000; buffer->pmem: 0x563d3c832000; memory-offset: 0;
gpgpusim: binding gpgpusim buffer 0xcade2400 (size 2560) to vulkan buffer 0x563d3c832000
LVP: gpgpusim buffer size 2560 allocated at 0xcade2400
RTV: Bind buffer memory for vkBuffer 0x563d42ad31d8
LVP: vkBuffer size 2560 created at 0x563d3c8476d8
RTV: New vkBuffer created at 0x563d3c8476d8
LLVM: llvmpipe_resource_bind_backing: pipe_screen 0x563d0c8c53c0; pipe_resource 0x563d3c834610; llvmpipe_resource 0x563d3c834610; pipe_memory_allocation 0x563d3c848000;
LVP: Binding lvp_buffer 0x563d3c847800: buffer->bo: 0x563d3c834610; buffer->pmem: 0x563d3c848000; memory-offset: 0;
gpgpusim: binding gpgpusim buffer 0xcade2e00 (size 2560) to vulkan buffer 0x563d3c848000
LVP: gpgpusim buffer size 2560 allocated at 0xcade2e00
RTV: Bind buffer memory for vkBuffer 0x563d3c8476d8
LVP: Finding mapped memory for mem 0x563d3c834820: mem->pmem 0x563d3c848000 
LVP: Identified at 0x563d3c848000
LVP: Command Buffer:
	VK_CMD_COPY_BUFFER2
RTV: Creating device buffer AABBs of size 7680
LVP: vkBuffer size 7680 created at 0x563d3c8476d8
RTV: New vkBuffer created at 0x563d3c8476d8
LLVM: llvmpipe_resource_bind_backing: pipe_screen 0x563d0c8c53c0; pipe_resource 0x563d3c848000; llvmpipe_resource 0x563d3c848000; pipe_memory_allocation 0x563d3c84a000;
LVP: Binding lvp_buffer 0x563d3c834820: buffer->bo: 0x563d3c848000; buffer->pmem: 0x563d3c84a000; memory-offset: 0;
gpgpusim: binding gpgpusim buffer 0xcade3800 (size 7680) to vulkan buffer 0x563d3c84a000
LVP: gpgpusim buffer size 7680 allocated at 0xcade3800
RTV: Bind buffer memory for vkBuffer 0x563d3c8476d8
LVP: vkBuffer size 7680 created at 0x563d3c849c38
RTV: New vkBuffer created at 0x563d3c849c38
LLVM: llvmpipe_resource_bind_backing: pipe_screen 0x563d0c8c53c0; pipe_resource 0x563d3c852d90; llvmpipe_resource 0x563d3c852d90; pipe_memory_allocation 0x563d3c854000;
LVP: Binding lvp_buffer 0x563d3c849d60: buffer->bo: 0x563d3c852d90; buffer->pmem: 0x563d3c854000; memory-offset: 0;
gpgpusim: binding gpgpusim buffer 0xcade5600 (size 7680) to vulkan buffer 0x563d3c854000
LVP: gpgpusim buffer size 7680 allocated at 0xcade5600
RTV: Bind buffer memory for vkBuffer 0x563d3c849c38
LVP: Finding mapped memory for mem 0x563d3c852fa0: mem->pmem 0x563d3c854000 
LVP: Identified at 0x563d3c854000
LVP: Command Buffer:
	VK_CMD_COPY_BUFFER2
RTV: Creating device buffer Procedurals of size 5120
LVP: vkBuffer size 5120 created at 0x563d3c849c38
RTV: New vkBuffer created at 0x563d3c849c38
LLVM: llvmpipe_resource_bind_backing: pipe_screen 0x563d0c8c53c0; pipe_resource 0x563d3c854000; llvmpipe_resource 0x563d3c854000; pipe_memory_allocation 0x563d3c85d000;
LVP: Binding lvp_buffer 0x563d3c852fa0: buffer->bo: 0x563d3c854000; buffer->pmem: 0x563d3c85d000; memory-offset: 0;
gpgpusim: binding gpgpusim buffer 0xcade7400 (size 5120) to vulkan buffer 0x563d3c85d000
LVP: gpgpusim buffer size 5120 allocated at 0xcade7400
RTV: Bind buffer memory for vkBuffer 0x563d3c849c38
LVP: vkBuffer size 5120 created at 0x563d3c85c6a8
RTV: New vkBuffer created at 0x563d3c85c6a8
LLVM: llvmpipe_resource_bind_backing: pipe_screen 0x563d0c8c53c0; pipe_resource 0x563d3c861090; llvmpipe_resource 0x563d3c861090; pipe_memory_allocation 0x563d3c862000;
LVP: Binding lvp_buffer 0x563d3c85c7d0: buffer->bo: 0x563d3c861090; buffer->pmem: 0x563d3c862000; memory-offset: 0;
gpgpusim: binding gpgpusim buffer 0xcade8800 (size 5120) to vulkan buffer 0x563d3c862000
LVP: gpgpusim buffer size 5120 allocated at 0xcade8800
RTV: Bind buffer memory for vkBuffer 0x563d3c85c6a8
LVP: Finding mapped memory for mem 0x563d3c8612a0: mem->pmem 0x563d3c862000 
LVP: Identified at 0x563d3c862000
LVP: Command Buffer:
	VK_CMD_COPY_BUFFER2
RTV: Creating device buffer CubeAABBs of size 7680
LVP: vkBuffer size 7680 created at 0x563d3c85c6a8
RTV: New vkBuffer created at 0x563d3c85c6a8
LLVM: llvmpipe_resource_bind_backing: pipe_screen 0x563d0c8c53c0; pipe_resource 0x563d3c862000; llvmpipe_resource 0x563d3c862000; pipe_memory_allocation 0x563d3c868000;
LVP: Binding lvp_buffer 0x563d3c8612a0: buffer->bo: 0x563d3c862000; buffer->pmem: 0x563d3c868000; memory-offset: 0;
gpgpusim: binding gpgpusim buffer 0xcade9c00 (size 7680) to vulkan buffer 0x563d3c868000
LVP: gpgpusim buffer size 7680 allocated at 0xcade9c00
RTV: Bind buffer memory for vkBuffer 0x563d3c85c6a8
LVP: vkBuffer size 7680 created at 0x563d3c867aa8
RTV: New vkBuffer created at 0x563d3c867aa8
LLVM: llvmpipe_resource_bind_backing: pipe_screen 0x563d0c8c53c0; pipe_resource 0x563d3c870390; llvmpipe_resource 0x563d3c870390; pipe_memory_allocation 0x563d3c871000;
LVP: Binding lvp_buffer 0x563d3c867bd0: buffer->bo: 0x563d3c870390; buffer->pmem: 0x563d3c871000; memory-offset: 0;
gpgpusim: binding gpgpusim buffer 0xcadeba00 (size 7680) to vulkan buffer 0x563d3c871000
LVP: gpgpusim buffer size 7680 allocated at 0xcadeba00
RTV: Bind buffer memory for vkBuffer 0x563d3c867aa8
LVP: Finding mapped memory for mem 0x563d3c8705a0: mem->pmem 0x563d3c871000 
LVP: Identified at 0x563d3c871000
LVP: Command Buffer:
	VK_CMD_COPY_BUFFER2
RTV: Creating device buffer ProceduralCubes of size 5120
LVP: vkBuffer size 5120 created at 0x563d3c867aa8
RTV: New vkBuffer created at 0x563d3c867aa8
LLVM: llvmpipe_resource_bind_backing: pipe_screen 0x563d0c8c53c0; pipe_resource 0x563d3c871000; llvmpipe_resource 0x563d3c871000; pipe_memory_allocation 0x563d3c87a000;
LVP: Binding lvp_buffer 0x563d3c8705a0: buffer->bo: 0x563d3c871000; buffer->pmem: 0x563d3c87a000; memory-offset: 0;
gpgpusim: binding gpgpusim buffer 0xcaded800 (size 5120) to vulkan buffer 0x563d3c87a000
LVP: gpgpusim buffer size 5120 allocated at 0xcaded800
RTV: Bind buffer memory for vkBuffer 0x563d3c867aa8
LVP: vkBuffer size 5120 created at 0x563d3c879c58
RTV: New vkBuffer created at 0x563d3c879c58
[...]
GPGPU-Sim PTX: 18 (potential) branch divergence @  PC=0x3970 (/cluster/home/jorgfi/vulkan-sim-root/vulkan-sim/../mesa-vulkan-sim/gpgpusimShaders/MESA_SHADER_CLOSEST_HIT_2.ptx:1782) @!%ssa_354 bra else_16;
GPGPU-Sim PTX:    immediate post dominator      @  PC=0x3a18 (/cluster/home/jorgfi/vulkan-sim-root/vulkan-sim/../mesa-vulkan-sim/gpgpusimShaders/MESA_SHADER_CLOSEST_HIT_2.ptx:1848) setp.ge.s32 %ssa_370, %ssa_101, %ssa_0_bits; // vec1  1 ssa_370 = ige ssa_101, ssa_0
GPGPU-Sim PTX: 19 (potential) branch divergence @  PC=0x3a08 (/cluster/home/jorgfi/vulkan-sim-root/vulkan-sim/../mesa-vulkan-sim/gpgpusimShaders/MESA_SHADER_CLOSEST_HIT_2.ptx:1835) bra end_if_16;
GPGPU-Sim PTX:    immediate post dominator      @  PC=0x3a18 (/cluster/home/jorgfi/vulkan-sim-root/vulkan-sim/../mesa-vulkan-sim/gpgpusimShaders/MESA_SHADER_CLOSEST_HIT_2.ptx:1848) setp.ge.s32 %ssa_370, %ssa_101, %ssa_0_bits; // vec1  1 ssa_370 = ige ssa_101, ssa_0
GPGPU-Sim PTX: 20 (potential) branch divergence @  PC=0x3a20 (/cluster/home/jorgfi/vulkan-sim-root/vulkan-sim/../mesa-vulkan-sim/gpgpusimShaders/MESA_SHADER_CLOSEST_HIT_2.ptx:1853) @!%ssa_370 bra else_17;
GPGPU-Sim PTX:    immediate post dominator      @  PC=0x3af8 (/cluster/home/jorgfi/vulkan-sim-root/vulkan-sim/../mesa-vulkan-sim/gpgpusimShaders/MESA_SHADER_CLOSEST_HIT_2.ptx:1933) mov.b32 %ssa_463_0, %ssa_453;
GPGPU-Sim PTX: 21 (potential) branch divergence @  PC=0x3a90 (/cluster/home/jorgfi/vulkan-sim-root/vulkan-sim/../mesa-vulkan-sim/gpgpusimShaders/MESA_SHADER_CLOSEST_HIT_2.ptx:1891) bra end_if_17;
GPGPU-Sim PTX:    immediate post dominator      @  PC=0x3af8 (/cluster/home/jorgfi/vulkan-sim-root/vulkan-sim/../mesa-vulkan-sim/gpgpusimShaders/MESA_SHADER_CLOSEST_HIT_2.ptx:1933) mov.b32 %ssa_463_0, %ssa_453;
GPGPU-Sim PTX: 22 (potential) branch divergence @  PC=0x3cc8 (/cluster/home/jorgfi/vulkan-sim-root/vulkan-sim/../mesa-vulkan-sim/gpgpusimShaders/MESA_SHADER_CLOSEST_HIT_2.ptx:2073) bra end_if_15;
GPGPU-Sim PTX:    immediate post dominator      @  PC=0x3db8 (/cluster/home/jorgfi/vulkan-sim-root/vulkan-sim/../mesa-vulkan-sim/gpgpusimShaders/MESA_SHADER_CLOSEST_HIT_2.ptx:2156) mov.b32 %ssa_489_0, %ssa_479;
GPGPU-Sim PTX: ... end of reconvergence points for MESA_SHADER_CLOSEST_HIT_func2_main
Operand information not set. load_vulkan_descriptor %ssa_6, 0, 7, 7; // vec2 32 ssa_6 = intrinsic vulkan_resource_index (%ssa_0) (0, 7, 7) /* desc_set=0 */ /* binding=7 */ /* desc_type=SSBO */
Operand information not set. load_primitive_id %ssa_12;// vec1 32 ssa_12 = intrinsic load_primitive_id () ()
Operand information not set. load_vulkan_descriptor %ssa_15, 0, 5, 7; // vec2 32 ssa_15 = intrinsic vulkan_resource_index (%ssa_0) (0, 5, 7) /* desc_set=0 */ /* binding=5 */ /* desc_type=SSBO */
Operand information not set. load_vulkan_descriptor %ssa_30, 0, 4, 7; // vec2 32 ssa_30 = intrinsic vulkan_resource_index (%ssa_0) (0, 4, 7) /* desc_set=0 */ /* binding=4 */ /* desc_type=SSBO */
Operand information not set. load_vulkan_descriptor %ssa_93, 0, 6, 7; // vec2 32 ssa_93 = intrinsic vulkan_resource_index (%ssa_0) (0, 6, 7) /* desc_set=0 */ /* binding=6 */ /* desc_type=SSBO */
GPGPU-Sim PTX: ... done pre-decoding instructions for 'MESA_SHADER_CLOSEST_HIT_func2_main'.
gpgpusim: saving image SCENE to file 04-09-2025-11-47-06-SCENE.ppm
GPGPU-Sim PTX: finding reconvergence points for 'MESA_SHADER_MISS_func1_main'...
GPGPU-Sim PTX: Finding dominators for 'MESA_SHADER_MISS_func1_main'...
GPGPU-Sim PTX: Finding immediate dominators for 'MESA_SHADER_MISS_func1_main'...
Printing basic blocks for function 'MESA_SHADER_MISS_func1_main':
bb_00	:  PC=0x24a8 (/cluster/home/jorgfi/vulkan-sim-root/vulkan-sim/../mesa-vulkan-sim/gpgpusimShaders/MESA_SHADER_MISS_1.ptx:13) rt_alloc_mem %Ray, 48, 32; // decl_var shader_call_data INTERP_MODE_NONE RayPayload Ray
bb_00	:  PC=0x24b0 (/cluster/home/jorgfi/vulkan-sim-root/vulkan-sim/../mesa-vulkan-sim/gpgpusimShaders/MESA_SHADER_MISS_1.ptx:21) mov.f32 %const1_f32, 0F3f800000;
bb_00	:  PC=0x24b8 (/cluster/home/jorgfi/vulkan-sim-root/vulkan-sim/../mesa-vulkan-sim/gpgpusimShaders/MESA_SHADER_MISS_1.ptx:24) mov.f32 %const0_f32, 0F00000000;
bb_00	:  PC=0x24c0 (/cluster/home/jorgfi/vulkan-sim-root/vulkan-sim/../mesa-vulkan-sim/gpgpusimShaders/MESA_SHADER_MISS_1.ptx:27) mov.u32 %const0_u32, 0;
bb_00	:  PC=0x24c8 (/cluster/home/jorgfi/vulkan-sim-root/vulkan-sim/../mesa-vulkan-sim/gpgpusimShaders/MESA_SHADER_MISS_1.ptx:30) mov.u16 %const1_u16, 1;
bb_00	:  PC=0x24d0 (/cluster/home/jorgfi/vulkan-sim-root/vulkan-sim/../mesa-vulkan-sim/gpgpusimShaders/MESA_SHADER_MISS_1.ptx:38) mov.f32 %ssa_0_0, 0F00000000;
bb_00	:  PC=0x24d8 (/cluster/home/jorgfi/vulkan-sim-root/vulkan-sim/../mesa-vulkan-sim/gpgpusimShaders/MESA_SHADER_MISS_1.ptx:39) mov.f32 %ssa_0_1, 0F00000000;
bb_00	:  PC=0x24e0 (/cluster/home/jorgfi/vulkan-sim-root/vulkan-sim/../mesa-vulkan-sim/gpgpusimShaders/MESA_SHADER_MISS_1.ptx:40) mov.f32 %ssa_0_2, 0F00000000;
bb_00	:  PC=0x24e8 (/cluster/home/jorgfi/vulkan-sim-root/vulkan-sim/../mesa-vulkan-sim/gpgpusimShaders/MESA_SHADER_MISS_1.ptx:41) mov.f32 %ssa_0_3, 0Fbf800000;
bb_00	:  PC=0x24f0 (/cluster/home/jorgfi/vulkan-sim-root/vulkan-sim/../mesa-vulkan-sim/gpgpusimShaders/MESA_SHADER_MISS_1.ptx:45) mov.f32 %ssa_1, 0Fbf800000; // vec1 32 ssa_1 = load_const (0xbf800000 /* -1.000000 */)
bb_00	:  PC=0x24f8 (/cluster/home/jorgfi/vulkan-sim-root/vulkan-sim/../mesa-vulkan-sim/gpgpusimShaders/MESA_SHADER_MISS_1.ptx:47) mov.b32 %ssa_1_bits, 0Fbf800000;
bb_00	:  PC=0x2500 (/cluster/home/jorgfi/vulkan-sim-root/vulkan-sim/../mesa-vulkan-sim/gpgpusimShaders/MESA_SHADER_MISS_1.ptx:53) mov.f32 %ssa_2_0, 0F3f800000;
bb_00	:  PC=0x2508 (/cluster/home/jorgfi/vulkan-sim-root/vulkan-sim/../mesa-vulkan-sim/gpgpusimShaders/MESA_SHADER_MISS_1.ptx:54) mov.f32 %ssa_2_1, 0F3f800000;
bb_00	:  PC=0x2510 (/cluster/home/jorgfi/vulkan-sim-root/vulkan-sim/../mesa-vulkan-sim/gpgpusimShaders/MESA_SHADER_MISS_1.ptx:55) mov.f32 %ssa_2_2, 0F3f800000;
bb_00	:  PC=0x2518 (/cluster/home/jorgfi/vulkan-sim-root/vulkan-sim/../mesa-vulkan-sim/gpgpusimShaders/MESA_SHADER_MISS_1.ptx:56) mov.f32 %ssa_2_3, 0F00000000;
bb_00	:  PC=0x2520 (/cluster/home/jorgfi/vulkan-sim-root/vulkan-sim/../mesa-vulkan-sim/gpgpusimShaders/MESA_SHADER_MISS_1.ptx:60) mov.f32 %ssa_3, 0F3f800000; // vec1 32 ssa_3 = load_const (0x3f800000 /* 1.000000 */)
bb_00	:  PC=0x2528 (/cluster/home/jorgfi/vulkan-sim-root/vulkan-sim/../mesa-vulkan-sim/gpgpusimShaders/MESA_SHADER_MISS_1.ptx:62) mov.b32 %ssa_3_bits, 0F3f800000;
bb_00	:  PC=0x2530 (/cluster/home/jorgfi/vulkan-sim-root/vulkan-sim/../mesa-vulkan-sim/gpgpusimShaders/MESA_SHADER_MISS_1.ptx:65) mov.f32 %ssa_4, 0F00000000; // vec1 32 ssa_4 = load_const (0x00000000 /* 0.000000 */)
bb_00	:  PC=0x2538 (/cluster/home/jorgfi/vulkan-sim-root/vulkan-sim/../mesa-vulkan-sim/gpgpusimShaders/MESA_SHADER_MISS_1.ptx:67) mov.b32 %ssa_4_bits, 0F00000000;
bb_00	:  PC=0x2540 (/cluster/home/jorgfi/vulkan-sim-root/vulkan-sim/../mesa-vulkan-sim/gpgpusimShaders/MESA_SHADER_MISS_1.ptx:70) load_vulkan_descriptor %ssa_5, 0, 3, 6; // vec2 32 ssa_5 = intrinsic vulkan_resource_index (%ssa_4) (0, 3, 6) /* desc_set=0 */ /* binding=3 */ /* desc_type=UBO */
bb_00	:  PC=0x2548 (/cluster/home/jorgfi/vulkan-sim-root/vulkan-sim/../mesa-vulkan-sim/gpgpusimShaders/MESA_SHADER_MISS_1.ptx:73) mov.b64 %ssa_6, %ssa_5; // vec2 32 ssa_6 = intrinsic load_vulkan_descriptor (%ssa_5) (6) /* desc_type=UBO */
bb_00	:  PC=0x2550 (/cluster/home/jorgfi/vulkan-sim-root/vulkan-sim/../mesa-vulkan-sim/gpgpusimShaders/MESA_SHADER_MISS_1.ptx:76) mov.b64 %ssa_7, %ssa_6; // vec2 32 ssa_7 = deref_cast (UniformBufferObjectStruct *)ssa_6 (ubo UniformBufferObjectStruct)  /* ptr_stride=0, align_mul=0, align_offset=0 */
bb_00	:  PC=0x2558 (/cluster/home/jorgfi/vulkan-sim-root/vulkan-sim/../mesa-vulkan-sim/gpgpusimShaders/MESA_SHADER_MISS_1.ptx:79) add.u64 %ssa_8, %ssa_7, 0; // vec2 32 ssa_8 = deref_struct &ssa_7->Camera (ubo UniformBufferObject) /* &((UniformBufferObjectStruct *)ssa_6)->Camera */
bb_00	:  PC=0x2560 (/cluster/home/jorgfi/vulkan-sim-root/vulkan-sim/../mesa-vulkan-sim/gpgpusimShaders/MESA_SHADER_MISS_1.ptx:82) add.u64 %ssa_9, %ssa_8, 312; // vec2 32 ssa_9 = deref_struct &ssa_8->HasSky (ubo uint) /* &((UniformBufferObjectStruct *)ssa_6)->Camera.HasSky */
bb_00	:  PC=0x2568 (/cluster/home/jorgfi/vulkan-sim-root/vulkan-sim/../mesa-vulkan-sim/gpgpusimShaders/MESA_SHADER_MISS_1.ptx:85) ld.global.u32 %ssa_10, [%ssa_9]; // vec1 32 ssa_10 = intrinsic load_deref (%ssa_9) (16) /* access=16 */
bb_00	:  PC=0x2570 (/cluster/home/jorgfi/vulkan-sim-root/vulkan-sim/../mesa-vulkan-sim/gpgpusimShaders/MESA_SHADER_MISS_1.ptx:88) setp.ne.s32 %ssa_11, %ssa_10, %ssa_4_bits; // vec1  1 ssa_11 = ine ssa_10, ssa_4
bb_00	:  PC=0x2578 (/cluster/home/jorgfi/vulkan-sim-root/vulkan-sim/../mesa-vulkan-sim/gpgpusimShaders/MESA_SHADER_MISS_1.ptx:93) @!%ssa_11 bra else_8;

bb_01	:  PC=0x2580 (/cluster/home/jorgfi/vulkan-sim-root/vulkan-sim/../mesa-vulkan-sim/gpgpusimShaders/MESA_SHADER_MISS_1.ptx:102) load_ray_world_direction %ssa_12_address; // vec3 32 ssa_12 = intrinsic load_ray_world_direction () ()
bb_01	:  PC=0x2588 (/cluster/home/jorgfi/vulkan-sim-root/vulkan-sim/../mesa-vulkan-sim/gpgpusimShaders/MESA_SHADER_MISS_1.ptx:103) ld.global.f32 %ssa_12_0, [%ssa_12_address + 0];
bb_01	:  PC=0x2590 (/cluster/home/jorgfi/vulkan-sim-root/vulkan-sim/../mesa-vulkan-sim/gpgpusimShaders/MESA_SHADER_MISS_1.ptx:104) ld.global.f32 %ssa_12_1, [%ssa_12_address + 4];
bb_01	:  PC=0x2598 (/cluster/home/jorgfi/vulkan-sim-root/vulkan-sim/../mesa-vulkan-sim/gpgpusimShaders/MESA_SHADER_MISS_1.ptx:105) ld.global.f32 %ssa_12_2, [%ssa_12_address + 8];
bb_01	:  PC=0x25a0 (/cluster/home/jorgfi/vulkan-sim-root/vulkan-sim/../mesa-vulkan-sim/gpgpusimShaders/MESA_SHADER_MISS_1.ptx:106) ld.global.f32 %ssa_12_3, [%ssa_12_address + 12];
bb_01	:  PC=0x25a8 (/cluster/home/jorgfi/vulkan-sim-root/vulkan-sim/../mesa-vulkan-sim/gpgpusimShaders/MESA_SHADER_MISS_1.ptx:109) mul.f32 %ssa_13, %ssa_12_0, %ssa_12_0; // vec1 32 ssa_13 = fmul ssa_12.x, ssa_12.x
bb_01	:  PC=0x25b0 (/cluster/home/jorgfi/vulkan-sim-root/vulkan-sim/../mesa-vulkan-sim/gpgpusimShaders/MESA_SHADER_MISS_1.ptx:112) mul.f32 %ssa_14, %ssa_12_1, %ssa_12_1; // vec1 32 ssa_14 = fmul ssa_12.y, ssa_12.y
bb_01	:  PC=0x25b8 (/cluster/home/jorgfi/vulkan-sim-root/vulkan-sim/../mesa-vulkan-sim/gpgpusimShaders/MESA_SHADER_MISS_1.ptx:115) mul.f32 %ssa_15, %ssa_12_2, %ssa_12_2; // vec1 32 ssa_15 = fmul ssa_12.z, ssa_12.z
bb_01	:  PC=0x25c0 (/cluster/home/jorgfi/vulkan-sim-root/vulkan-sim/../mesa-vulkan-sim/gpgpusimShaders/MESA_SHADER_MISS_1.ptx:121) mov.f32 %ssa_16_0, %ssa_13;
bb_01	:  PC=0x25c8 (/cluster/home/jorgfi/vulkan-sim-root/vulkan-sim/../mesa-vulkan-sim/gpgpusimShaders/MESA_SHADER_MISS_1.ptx:122) mov.f32 %ssa_16_1, %ssa_14;
bb_01	:  PC=0x25d0 (/cluster/home/jorgfi/vulkan-sim-root/vulkan-sim/../mesa-vulkan-sim/gpgpusimShaders/MESA_SHADER_MISS_1.ptx:123) mov.f32 %ssa_16_2, %ssa_15; // vec3 32 ssa_16 = vec3 ssa_13, ssa_14, ssa_15
bb_01	:  PC=0x25d8 (/cluster/home/jorgfi/vulkan-sim-root/vulkan-sim/../mesa-vulkan-sim/gpgpusimShaders/MESA_SHADER_MISS_1.ptx:126) add.f32 %ssa_17, %ssa_16_0, %ssa_16_1;
bb_01	:  PC=0x25e0 (/cluster/home/jorgfi/vulkan-sim-root/vulkan-sim/../mesa-vulkan-sim/gpgpusimShaders/MESA_SHADER_MISS_1.ptx:127) add.f32 %ssa_17, %ssa_17, %ssa_16_2; // vec1 32 ssa_17 = fsum3 ssa_16
bb_01	:  PC=0x25e8 (/cluster/home/jorgfi/vulkan-sim-root/vulkan-sim/../mesa-vulkan-sim/gpgpusimShaders/MESA_SHADER_MISS_1.ptx:130) rsqrt.approx.f32 %ssa_18, %ssa_17;// vec1 32 ssa_18 = frsq ssa_17
bb_01	:  PC=0x25f0 (/cluster/home/jorgfi/vulkan-sim-root/vulkan-sim/../mesa-vulkan-sim/gpgpusimShaders/MESA_SHADER_MISS_1.ptx:133) mul.f32 %ssa_19, %ssa_12_1, %ssa_18; // vec1 32 ssa_19 = fmul ssa_12.y, ssa_18
bb_01	:  PC=0x25f8 (/cluster/home/jorgfi/vulkan-sim-root/vulkan-sim/../mesa-vulkan-sim/gpgpusimShaders/MESA_SHADER_MISS_1.ptx:136) add.f32 %ssa_20, %ssa_19, %ssa_3;// vec1 32 ssa_20 = fadd ssa_19, ssa_3
bb_01	:  PC=0x2600 (/cluster/home/jorgfi/vulkan-sim-root/vulkan-sim/../mesa-vulkan-sim/gpgpusimShaders/MESA_SHADER_MISS_1.ptx:139) mov.f32 %ssa_21, 0Fbe800000; // vec1 32 ssa_21 = load_const (0xbe800000 /* -0.250000 */)
bb_01	:  PC=0x2608 (/cluster/home/jorgfi/vulkan-sim-root/vulkan-sim/../mesa-vulkan-sim/gpgpusimShaders/MESA_SHADER_MISS_1.ptx:141) mov.b32 %ssa_21_bits, 0Fbe800000;
bb_01	:  PC=0x2610 (/cluster/home/jorgfi/vulkan-sim-root/vulkan-sim/../mesa-vulkan-sim/gpgpusimShaders/MESA_SHADER_MISS_1.ptx:144) mul.f32 %ssa_22, %ssa_21, %ssa_20;// vec1 32 ssa_22 = fmul ssa_21, ssa_20
bb_01	:  PC=0x2618 (/cluster/home/jorgfi/vulkan-sim-root/vulkan-sim/../mesa-vulkan-sim/gpgpusimShaders/MESA_SHADER_MISS_1.ptx:147) mov.f32 %ssa_23, 0Fbe19999a; // vec1 32 ssa_23 = load_const (0xbe19999a /* -0.150000 */)
bb_01	:  PC=0x2620 (/cluster/home/jorgfi/vulkan-sim-root/vulkan-sim/../mesa-vulkan-sim/gpgpusimShaders/MESA_SHADER_MISS_1.ptx:149) mov.b32 %ssa_23_bits, 0Fbe19999a;
bb_01	:  PC=0x2628 (/cluster/home/jorgfi/vulkan-sim-root/vulkan-sim/../mesa-vulkan-sim/gpgpusimShaders/MESA_SHADER_MISS_1.ptx:152) mul.f32 %ssa_24, %ssa_23, %ssa_20;// vec1 32 ssa_24 = fmul ssa_23, ssa_20
bb_01	:  PC=0x2630 (/cluster/home/jorgfi/vulkan-sim-root/vulkan-sim/../mesa-vulkan-sim/gpgpusimShaders/MESA_SHADER_MISS_1.ptx:155) add.f32 %ssa_25, %ssa_2_0, %ssa_22; // vec1 32 ssa_25 = fadd ssa_2.x, ssa_22
bb_01	:  PC=0x2638 (/cluster/home/jorgfi/vulkan-sim-root/vulkan-sim/../mesa-vulkan-sim/gpgpusimShaders/MESA_SHADER_MISS_1.ptx:158) add.f32 %ssa_26, %ssa_2_1, %ssa_24; // vec1 32 ssa_26 = fadd ssa_2.y, ssa_24
bb_01	:  PC=0x2640 (/cluster/home/jorgfi/vulkan-sim-root/vulkan-sim/../mesa-vulkan-sim/gpgpusimShaders/MESA_SHADER_MISS_1.ptx:164) mov.f32 %ssa_27_0, %ssa_25;
bb_01	:  PC=0x2648 (/cluster/home/jorgfi/vulkan-sim-root/vulkan-sim/../mesa-vulkan-sim/gpgpusimShaders/MESA_SHADER_MISS_1.ptx:165) mov.f32 %ssa_27_1, %ssa_26;
bb_01	:  PC=0x2650 (/cluster/home/jorgfi/vulkan-sim-root/vulkan-sim/../mesa-vulkan-sim/gpgpusimShaders/MESA_SHADER_MISS_1.ptx:166) mov.f32 %ssa_27_2, %ssa_3;
bb_01	:  PC=0x2658 (/cluster/home/jorgfi/vulkan-sim-root/vulkan-sim/../mesa-vulkan-sim/gpgpusimShaders/MESA_SHADER_MISS_1.ptx:167) mov.f32 %ssa_27_3, %ssa_1; // vec4 32 ssa_27 = vec4 ssa_25, ssa_26, ssa_3, ssa_1
bb_01	:  PC=0x2660 (/cluster/home/jorgfi/vulkan-sim-root/vulkan-sim/../mesa-vulkan-sim/gpgpusimShaders/MESA_SHADER_MISS_1.ptx:170) mov.b64 %ssa_28, %Ray; // vec1 32 ssa_28 = deref_var &Ray (shader_call_data RayPayload) 
bb_01	:  PC=0x2668 (/cluster/home/jorgfi/vulkan-sim-root/vulkan-sim/../mesa-vulkan-sim/gpgpusimShaders/MESA_SHADER_MISS_1.ptx:173) add.u64 %ssa_29, %ssa_28, 0; // vec1 32 ssa_29 = deref_struct &ssa_28->ColorAndDistance (shader_call_data vec4) /* &Ray.ColorAndDistance */
bb_01	:  PC=0x2670 (/cluster/home/jorgfi/vulkan-sim-root/vulkan-sim/../mesa-vulkan-sim/gpgpusimShaders/MESA_SHADER_MISS_1.ptx:175) st.global.f32 [%ssa_29 + 0], %ssa_27_0;
bb_01	:  PC=0x2678 (/cluster/home/jorgfi/vulkan-sim-root/vulkan-sim/../mesa-vulkan-sim/gpgpusimShaders/MESA_SHADER_MISS_1.ptx:176) st.global.f32 [%ssa_29 + 4], %ssa_27_1;
bb_01	:  PC=0x2680 (/cluster/home/jorgfi/vulkan-sim-root/vulkan-sim/../mesa-vulkan-sim/gpgpusimShaders/MESA_SHADER_MISS_1.ptx:177) st.global.f32 [%ssa_29 + 8], %ssa_27_2;
bb_01	:  PC=0x2688 (/cluster/home/jorgfi/vulkan-sim-root/vulkan-sim/../mesa-vulkan-sim/gpgpusimShaders/MESA_SHADER_MISS_1.ptx:178) st.global.f32 [%ssa_29 + 12], %ssa_27_3;
bb_01	:  PC=0x2690 (/cluster/home/jorgfi/vulkan-sim-root/vulkan-sim/../mesa-vulkan-sim/gpgpusimShaders/MESA_SHADER_MISS_1.ptx:184) bra end_if_8;

bb_02	:                 (/cluster/home/jorgfi/vulkan-sim-root/vulkan-sim/../mesa-vulkan-sim/gpgpusimShaders/MESA_SHADER_MISS_1.ptx:189) .reg .b64 %ssa_30;
bb_02	:  PC=0x2698 (/cluster/home/jorgfi/vulkan-sim-root/vulkan-sim/../mesa-vulkan-sim/gpgpusimShaders/MESA_SHADER_MISS_1.ptx:190) mov.b64 %ssa_30, %Ray; // vec1 32 ssa_30 = deref_var &Ray (shader_call_data RayPayload) 
bb_02	:  PC=0x26a0 (/cluster/home/jorgfi/vulkan-sim-root/vulkan-sim/../mesa-vulkan-sim/gpgpusimShaders/MESA_SHADER_MISS_1.ptx:193) add.u64 %ssa_31, %ssa_30, 0; // vec1 32 ssa_31 = deref_struct &ssa_30->ColorAndDistance (shader_call_data vec4) /* &Ray.ColorAndDistance */
bb_02	:  PC=0x26a8 (/cluster/home/jorgfi/vulkan-sim-root/vulkan-sim/../mesa-vulkan-sim/gpgpusimShaders/MESA_SHADER_MISS_1.ptx:195) st.global.f32 [%ssa_31 + 0], %ssa_0_0;
bb_02	:  PC=0x26b0 (/cluster/home/jorgfi/vulkan-sim-root/vulkan-sim/../mesa-vulkan-sim/gpgpusimShaders/MESA_SHADER_MISS_1.ptx:196) st.global.f32 [%ssa_31 + 4], %ssa_0_1;
bb_02	:  PC=0x26b8 (/cluster/home/jorgfi/vulkan-sim-root/vulkan-sim/../mesa-vulkan-sim/gpgpusimShaders/MESA_SHADER_MISS_1.ptx:197) st.global.f32 [%ssa_31 + 8], %ssa_0_2;
bb_02	:  PC=0x26c0 (/cluster/home/jorgfi/vulkan-sim-root/vulkan-sim/../mesa-vulkan-sim/gpgpusimShaders/MESA_SHADER_MISS_1.ptx:198) st.global.f32 [%ssa_31 + 12], %ssa_0_3;

bb_03	:                 (/cluster/home/jorgfi/vulkan-sim-root/vulkan-sim/../mesa-vulkan-sim/gpgpusimShaders/MESA_SHADER_MISS_1.ptx:210) shader_exit:
bb_03	:                 (/cluster/home/jorgfi/vulkan-sim-root/vulkan-sim/../mesa-vulkan-sim/gpgpusimShaders/MESA_SHADER_MISS_1.ptx:211) ret ;
bb_03	:  PC=0x26c8 (/cluster/home/jorgfi/vulkan-sim-root/vulkan-sim/../mesa-vulkan-sim/gpgpusimShaders/MESA_SHADER_MISS_1.ptx:211) ret ;

Summary of basic blocks for 'MESA_SHADER_MISS_func1_main':
bb_00	: first: rt_alloc_mem	 last: bra	
bb_01	: first: load_ray_world_direction	 last: bra	
bb_02	: first: mov	 last: st	
bb_03	: first: ret	 last: ret	
bb_04	: first: NULL	 last: NULL	

GPGPU-Sim PTX: Finding postdominators for 'MESA_SHADER_MISS_func1_main'...
GPGPU-Sim PTX: Finding immediate postdominators for 'MESA_SHADER_MISS_func1_main'...
GPGPU-Sim PTX: pre-decoding instructions for 'MESA_SHADER_MISS_func1_main'...
GPGPU-Sim PTX: reconvergence points for MESA_SHADER_MISS_func1_main...
GPGPU-Sim PTX:  1 (potential) branch divergence @  PC=0x2578 (/cluster/home/jorgfi/vulkan-sim-root/vulkan-sim/../mesa-vulkan-sim/gpgpusimShaders/MESA_SHADER_MISS_1.ptx:93) @!%ssa_11 bra else_8;
GPGPU-Sim PTX:    immediate post dominator      @  PC=0x26c8 (/cluster/home/jorgfi/vulkan-sim-root/vulkan-sim/../mesa-vulkan-sim/gpgpusimShaders/MESA_SHADER_MISS_1.ptx:211) ret ;
GPGPU-Sim PTX:  2 (potential) branch divergence @  PC=0x2690 (/cluster/home/jorgfi/vulkan-sim-root/vulkan-sim/../mesa-vulkan-sim/gpgpusimShaders/MESA_SHADER_MISS_1.ptx:184) bra end_if_8;
GPGPU-Sim PTX:    immediate post dominator      @  PC=0x26c8 (/cluster/home/jorgfi/vulkan-sim-root/vulkan-sim/../mesa-vulkan-sim/gpgpusimShaders/MESA_SHADER_MISS_1.ptx:211) ret ;
GPGPU-Sim PTX: ... end of reconvergence points for MESA_SHADER_MISS_func1_main
Operand information not set. load_vulkan_descriptor %ssa_5, 0, 3, 6; // vec2 32 ssa_5 = intrinsic vulkan_resource_index (%ssa_4) (0, 3, 6) /* desc_set=0 */ /* binding=3 */ /* desc_type=UBO */
GPGPU-Sim PTX: ... done pre-decoding instructions for 'MESA_SHADER_MISS_func1_main'.
GPGPU-Sim: Done functional simulation (396980340 instructions simulated).
Stats for Kernel 0 Classification

Min 0.000000 Max 15.000000 Average 17.848706 
[ 63885540 -521765506 0 163448982 20928586 527598510 0 0 0 0 0 121833508 10525360 10525360 0 527598510 0 0 0 0 0 0 0 0 0 ]
Stats for Kernel 0 OP Classification

Min 1.000000 Max 143.000000 Average 427.901430 
[ 0 823946436 0 0 37038225 0 0 0 0 0 0 216547018 0 0 0 0 0 0 0 0 0 0 0 145570559 0 0 0 0 0 0 0 375474406 0 0 0 0 0 0 0 0 0 1793084278 0 657228435 29733890 0 0 0 0 0 0 0 0 0 0 2883584 0 0 10787504 0 17258570 0 79005512 142058455 0 0 16252928 16252928 0 0 786432 0 0 152124104 0 0 0 0 0 0 0 0 0 0 0 0 0 0 0 0 0 0 0 32505856 0 0 0 524288 10525360 132358868 ]


gpgpu_simulation_time = 0 days, 1 hrs, 42 min, 58 sec (6178 sec)
gpgpu_simulation_rate = 64257 (inst/sec)
Destroy streams for kernel 1: size 0
Max simulated kernels of 1 has reached, exiting.
GPGPU-Sim: *** exit detected ***
