Running from: /cluster/home/jorgfi
Job: vulkan_sim  ID: 23020901  Nodes: idun-07-03


ENVIRONMENT INFO
---------------------------
	- OS:	 Ubuntu 20.04.6 LTS
	- CPU:	 Intel(R) Xeon(R) Gold 6148 CPU @ 2.40GHz
	- RAM:	 753Gi

Wed Sep  3 16:42:37 2025       
+-----------------------------------------------------------------------------------------+
| NVIDIA-SMI 575.57.08              Driver Version: 575.57.08      CUDA Version: 12.9     |
|-----------------------------------------+------------------------+----------------------+
| GPU  Name                 Persistence-M | Bus-Id          Disp.A | Volatile Uncorr. ECC |
| Fan  Temp   Perf          Pwr:Usage/Cap |           Memory-Usage | GPU-Util  Compute M. |
|                                         |                        |               MIG M. |
|=========================================+========================+======================|
|   0  Tesla V100-PCIE-32GB           On  |   00000000:12:00.0 Off |                    0 |
| N/A   29C    P0             23W /  250W |       0MiB /  32768MiB |      0%      Default |
|                                         |                        |                  N/A |
+-----------------------------------------+------------------------+----------------------+
                                                                                         
+-----------------------------------------------------------------------------------------+
| Processes:                                                                              |
|  GPU   GI   CI              PID   Type   Process name                        GPU Memory |
|        ID   ID                                                               Usage      |
|=========================================================================================|
|  No running processes found                                                             |
+-----------------------------------------------------------------------------------------+


SIMULATION SETUP
---------------------
	- Device config:	 /cluster/home/jorgfi/vulkan-sim-root/vulkan-sim/configs/tested-cfgs/MOBILE
	- gpgpu_ptx_sim_mode:	 0
	- Scene:		 9
	- Dimensions:
		- Width:	 128
		- Height:	 128
	- Samples:		 2
	- Shader type:		 1




STARTING SIMULATION...
--------------------------------------------------------



GPGPU-Sim version 4.0.0 - Vulkan-Sim version 2.0.0 (build gpgpu-sim_git-commit-dc742faa6e5fcfaf415fe51eab71dcf9345388fd-modified_585.0) configured with GPUWattch.

----------------------------------------------------------------------------
INFO - If you only care about PTX execution, ignore this message. GPGPU-Sim supports PTX execution in modern CUDA.
If you want to run PTXPLUS (sm_1x SASS) with a modern card configuration - set the envronment variable
$PTXAS_CUDA_INSTALL_PATH to point a CUDA version compabible with your card configurations (i.e. 8+ for PASCAL, 9+ for VOLTA etc..)
For example: "export $PTXAS_CUDA_INSTALL_PATH=/usr/local/cuda-9.1"

The following text describes why:
If you are using PTXPLUS, only sm_1x is supported and it requires that the app and simulator binaries are compiled in CUDA 4.2 or less.
The simulator requires it since CUDA headers desribe struct sizes in the exec which change from gen to gen.
The apps require 4.2 because new versions of CUDA tools have dropped parsing support for generating sm_1x
When running using modern config (i.e. volta) and PTXPLUS with CUDA 4.2, the $PTXAS_CUDA_INSTALL_PATH env variable is required to get proper register usage
(and hence occupancy) using a version of CUDA that knows the register usage on the real card.

----------------------------------------------------------------------------
setup_environment succeeded
MESA: Linking to LLVM resource bind packing.
Vulkan SDK Header Version: 296

Vulkan Instance Extensions: 
- VK_KHR_device_group_creation (0.0.1)
- VK_KHR_external_fence_capabilities (0.0.1)
- VK_KHR_external_memory_capabilities (0.0.1)
- VK_KHR_external_semaphore_capabilities (0.0.1)
- VK_KHR_get_physical_device_properties2 (0.0.2)
- VK_KHR_get_surface_capabilities2 (0.0.1)
- VK_KHR_surface (0.0.25)
- VK_KHR_surface_protected_capabilities (0.0.1)
- VK_KHR_xcb_surface (0.0.6)
- VK_KHR_xlib_surface (0.0.6)
- VK_EXT_debug_report (0.0.10)
- VK_EXT_debug_utils (0.0.2)
- VK_KHR_portability_enumeration (0.0.1)
- VK_LUNARG_direct_driver_loading (0.0.1)

Vulkan Instance Layers: 
- VK_LAYER_NV_optimus (1.4.303) : NVIDIA Optimus layer
- VK_LAYER_NV_present (1.4.303) : NVIDIA GR2608 layer

Vulkan Devices: 
- [0] UnknownVendor 'llvmpipe (LLVM 10.0.0, 256 bits)' (CPU: vulkan 1.3.254, driver llvmpipe Mesa 23.2.0-devel (git-b8f3e3980e) (LLVM 10.0.0) - 0.0.1)

Setting Device [0]:
Getting ray tracing pipeline properties...
- loading '../../../Scenes/Blender_2.77/Cylinder_412.obj'... - loading '../../../Scenes/Blender_2.77/Textures/Cylinder.412/Cylinder.412_t.png'... (32 x 32 x 3) 0.0179536s
(711 vertices, 675 unique vertices, 1 materials) 0.0597439s
- loading '../../../Scenes/Blender_2.77/Cylinder_409.obj'... - loading '../../../Scenes/Blender_2.77/Textures/Cylinder.409/Cylinder.409_t.png'... (512 x 512 x 3) 0.00310571s
(1408680 vertices, 1798323 unique vertices, 1 materials) 2.70219s
- loading '../../../Scenes/Blender_2.77/Cylinder_432.obj'... - loading '../../../Scenes/Blender_2.77/Textures/Cylinder.432/Cylinder.432_t.png'... (1024 x 1024 x 3) 0.0370914s
(3750 vertices, 1525 unique vertices, 1 materials) 0.089256s
- loading '../../../Scenes/Blender_2.77/Nut_003.obj'... - loading '../../../Scenes/Blender_2.77/Textures/Nut.003/Nut.003_t.png'... (32 x 32 x 3) 0.0106447s
(4071 vertices, 4395 unique vertices, 1 materials) 0.0176883s
- loading '../../../Scenes/Blender_2.77/Cube_042.obj'... - loading '../../../Scenes/Blender_2.77/Textures/Cube.042/Cube.042_t.png'... (128 x 128 x 3) 0.010609s
(4230 vertices, 1634 unique vertices, 1 materials) 0.0533024s
- loading '../../../Scenes/Blender_2.77/Cube_1429.obj'... - loading '../../../Scenes/Blender_2.77/Textures/Cube.1429/Cube.1429_t.png'... (2048 x 2048 x 3) 0.0507609s
(18456 vertices, 6984 unique vertices, 1 materials) 0.11091s
- loading '../../../Scenes/Blender_2.77/Cylinder_411.obj'... - loading '../../../Scenes/Blender_2.77/Textures/Cylinder.411/Cylinder.411_t.png'... (128 x 128 x 3) 0.0307243s
(20748 vertices, 8102 unique vertices, 1 materials) 0.105358s
- loading '../../../Scenes/Blender_2.77/BezierCurve_009.obj'... - loading '../../../Scenes/Blender_2.77/Textures/BezierCurve.009/BezierCurve.009_t.png'... (128 x 128 x 3) 0.00551072s
(5979 vertices, 2262 unique vertices, 1 materials) 0.0262654s
- loading '../../../Scenes/Blender_2.77/Bolt_025.obj'... - loading '../../../Scenes/Blender_2.77/Textures/Bolt.025/Bolt.025_t.png'... (16 x 16 x 3) 0.0199494s
(7512 vertices, 8467 unique vertices, 1 materials) 0.0449755s
- loading '../../../Scenes/Blender_2.77/Nut_007.obj'... - loading '../../../Scenes/Blender_2.77/Textures/Nut.007/Nut.007_t.png'... (32 x 32 x 3) 0.00106841s
(4071 vertices, 4379 unique vertices, 1 materials) 0.0349553s
- loading '../../../Scenes/Blender_2.77/tape.obj'... (0 vertices, 0 unique vertices, 1 materials) 0.0384174s
- loading '../../../Scenes/Blender_2.77/Cylinder_431.obj'... - loading '../../../Scenes/Blender_2.77/Textures/Cylinder.431/Cylinder.431_t.png'... (1024 x 1024 x 3) 0.224803s
(3174 vertices, 1312 unique vertices, 1 materials) 0.245217s
- loading '../../../Scenes/Blender_2.77/Empty.obj'... (0 vertices, 0 unique vertices, 1 materials) 0.0471598s
- loading '../../../Scenes/Blender_2.77/BezierCurve_024.obj'... (39 vertices, 0 unique vertices, 1 materials) 0.0989967s
- loading '../../../Scenes/Blender_2.77/Cube_1407.obj'... - loading '../../../Scenes/Blender_2.77/Textures/Cube.1407/Cube.1407_t.png'... (64 x 64 x 3) 0.0215585s
(486 vertices, 235 unique vertices, 1 materials) 0.442278s
- loading '../../../Scenes/Blender_2.77/Nut_011.obj'... - loading '../../../Scenes/Blender_2.77/Textures/Nut.011/Nut.011_t.png'... (32 x 32 x 3) 0.0105992s
(4071 vertices, 4409 unique vertices, 1 materials) 0.113418s
- loading '../../../Scenes/Blender_2.77/Cylinder_406.obj'... - loading '../../../Scenes/Blender_2.77/Textures/Cylinder.406/Cylinder.406_t.png'... (512 x 512 x 3) 0.0473517s
(1408680 vertices, 1804071 unique vertices, 1 materials) 2.67533s
- loading '../../../Scenes/Blender_2.77/Camera_001.obj'... (0 vertices, 0 unique vertices, 1 materials) 0.0930942s
- loading '../../../Scenes/Blender_2.77/Cube_1414.obj'... - loading '../../../Scenes/Blender_2.77/Textures/Cube.1414/Cube.1414_t.png'... (256 x 256 x 3) 0.205319s
(4614 vertices, 1746 unique vertices, 1 materials) 0.222373s
- loading '../../../Scenes/Blender_2.77/Cylinder_011.obj'... - loading '../../../Scenes/Blender_2.77/Textures/Cylinder.011/Cylinder.011_t.png'... (128 x 128 x 3) 0.474342s
(711 vertices, 675 unique vertices, 1 materials) 0.726411s
- loading '../../../Scenes/Blender_2.77/Cylinder_010.obj'... - loading '../../../Scenes/Blender_2.77/Textures/Cylinder.010/Cylinder.010_t.png'... (128 x 128 x 3) 0.0238911s
(2151 vertices, 1137 unique vertices, 1 materials) 0.280503s
- loading '../../../Scenes/Blender_2.77/Nut_008.obj'... - loading '../../../Scenes/Blender_2.77/Textures/Nut.008/Nut.008_t.png'... (32 x 32 x 3) 0.0182386s
(4071 vertices, 4389 unique vertices, 1 materials) 0.18634s
- loading '../../../Scenes/Blender_2.77/Torus_004.obj'... - loading '../../../Scenes/Blender_2.77/Textures/Torus.004/Torus.004_t.png'... (64 x 64 x 3) 0.00137863s
(864 vertices, 432 unique vertices, 1 materials) 0.114242s
- loading '../../../Scenes/Blender_2.77/BezierCurve_014.obj'... - loading '../../../Scenes/Blender_2.77/Textures/BezierCurve.014/BezierCurve.014_t.png'... (128 x 128 x 3) 0.00384091s
(6555 vertices, 2467 unique vertices, 1 materials) 0.0471185s
- loading '../../../Scenes/Blender_2.77/Cylinder_430.obj'... - loading '../../../Scenes/Blender_2.77/Textures/Cylinder.430/Cylinder.430_t.png'... (64 x 64 x 3) 0.0815941s
(504 vertices, 552 unique vertices, 1 materials) 0.456628s
- loading '../../../Scenes/Blender_2.77/Torus_000.obj'... - loading '../../../Scenes/Blender_2.77/Textures/Torus.000/Torus.000_t.png'... (512 x 512 x 3) 0.00830743s
(234630 vertices, 87608 unique vertices, 1 materials) 0.7127s
- loading '../../../Scenes/Blender_2.77/Cylinder_051.obj'... - loading '../../../Scenes/Blender_2.77/Textures/Cylinder.051/Cylinder.051_t.png'... (128 x 128 x 3) 0.00218927s
(91443 vertices, 34222 unique vertices, 1 materials) 0.221793s
- loading '../../../Scenes/Blender_2.77/Bolt_023.obj'... - loading '../../../Scenes/Blender_2.77/Textures/Bolt.023/Bolt.023_t.png'... (16 x 16 x 3) 0.0102259s
(7512 vertices, 8467 unique vertices, 1 materials) 0.437305s
- loading '../../../Scenes/Blender_2.77/Plane_003.obj'... - loading '../../../Scenes/Blender_2.77/Textures/Plane.003/Plane.003_t.png'... (2048 x 2048 x 3) 0.454417s
(12 vertices, 4 unique vertices, 1 materials) 0.506598s
- loading '../../../Scenes/Blender_2.77/BezierCurve_013.obj'... (1248 vertices, 221 unique vertices, 1 materials) 0.376548s
- loading '../../../Scenes/Blender_2.77/Cylinder_425.obj'... - loading '../../../Scenes/Blender_2.77/Textures/Cylinder.425/Cylinder.425_t.png'... (256 x 256 x 3) 0.0112888s
(32103 vertices, 35203 unique vertices, 1 materials) 0.207199s
- loading '../../../Scenes/Blender_2.77/Cylinder_041.obj'... - loading '../../../Scenes/Blender_2.77/Textures/Cylinder.041/Cylinder.041_t.png'... (256 x 256 x 3) 0.012776s
(900 vertices, 912 unique vertices, 1 materials) 0.0429336s
- loading '../../../Scenes/Blender_2.77/Bolt_024.obj'... - loading '../../../Scenes/Blender_2.77/Textures/Bolt.024/Bolt.024_t.png'... (16 x 16 x 3) 0.598995s
(7512 vertices, 8467 unique vertices, 1 materials) 1.00409s
- loading '../../../Scenes/Blender_2.77/Cylinder_012.obj'... - loading '../../../Scenes/Blender_2.77/Textures/Cylinder.012/Cylinder.012_t.png'... (1024 x 1024 x 3) 0.0301423s
(4443 vertices, 2683 unique vertices, 1 materials) 0.207623s
- loading '../../../Scenes/Blender_2.77/Torus_010.obj'... - loading '../../../Scenes/Blender_2.77/Textures/Torus.010/Torus.010_t.png'... (64 x 64 x 3) 0.00704784s
(864 vertices, 432 unique vertices, 1 materials) 0.0283561s
- loading '../../../Scenes/Blender_2.77/Cylinder_057.obj'... - loading '../../../Scenes/Blender_2.77/Textures/Cylinder.057/Cylinder.057_t.png'... (32 x 32 x 3) 0.0366836s
(2598 vertices, 1054 unique vertices, 1 materials) 1.06271s
- loading '../../../Scenes/Blender_2.77/Cylinder_021.obj'... - loading '../../../Scenes/Blender_2.77/Textures/Cylinder.021/Cylinder.021_t.png'... (128 x 128 x 3) 0.02042s
(279 vertices, 193 unique vertices, 1 materials) 0.12495s
- loading '../../../Scenes/Blender_2.77/BezierCurve_007.obj'... (1248 vertices, 221 unique vertices, 1 materials) 0.0528018s
- loading '../../../Scenes/Blender_2.77/Cylinder_416.obj'... - loading '../../../Scenes/Blender_2.77/Textures/Cylinder.416/Cylinder.416_t.png'... (128 x 128 x 3) 0.075927s
(3600 vertices, 6336 unique vertices, 1 materials) 0.104325s
- loading '../../../Scenes/Blender_2.77/twister_014.obj'... - loading '../../../Scenes/Blender_2.77/Textures/twister.014/twister.014_t.png'... (256 x 256 x 3) 0.0121566s
(10518 vertices, 4387 unique vertices, 1 materials) 1.23797s
- loading '../../../Scenes/Blender_2.77/icecream.obj'... - loading '../../../Scenes/Blender_2.77/Textures/icecream/icecream_t.png'... (2048 x 2048 x 3) 0.134927s
(1181187 vertices, 413383 unique vertices, 1 materials) 11.0195s
- loading '../../../Scenes/Blender_2.77/BezierCurve_023.obj'... (39 vertices, 0 unique vertices, 1 materials) 0.0355201s
- loading '../../../Scenes/Blender_2.77/twister_010.obj'... - loading '../../../Scenes/Blender_2.77/Textures/twister.010/twister.010_t.png'... (256 x 256 x 3) 0.0719857s
(10518 vertices, 4403 unique vertices, 1 materials) 0.114806s
- loading '../../../Scenes/Blender_2.77/Cylinder_417.obj'... - loading '../../../Scenes/Blender_2.77/Textures/Cylinder.417/Cylinder.417_t.png'... (1024 x 1024 x 3) 0.02908s
(3174 vertices, 1312 unique vertices, 1 materials) 0.104968s
- loading '../../../Scenes/Blender_2.77/twister_006.obj'... - loading '../../../Scenes/Blender_2.77/Textures/twister.006/twister.006_t.png'... (256 x 256 x 3) 0.00310462s
(10518 vertices, 4403 unique vertices, 1 materials) 0.0351174s
- loading '../../../Scenes/Blender_2.77/Cube_1411.obj'... - loading '../../../Scenes/Blender_2.77/Textures/Cube.1411/Cube.1411_t.png'... (1024 x 1024 x 3) 0.0179658s
(24 vertices, 24 unique vertices, 1 materials) 0.045903s
- loading '../../../Scenes/Blender_2.77/Bolt_016.obj'... - loading '../../../Scenes/Blender_2.77/Textures/Bolt.016/Bolt.016_t.png'... (32 x 32 x 3) 0.010109s
(7512 vertices, 8467 unique vertices, 1 materials) 0.0376269s
- loading '../../../Scenes/Blender_2.77/Cube_034.obj'... - loading '../../../Scenes/Blender_2.77/Textures/Cube.034/Cube.034_t.png'... (512 x 512 x 3) 0.0188618s
(4614 vertices, 1746 unique vertices, 1 materials) 0.0733817s
- loading '../../../Scenes/Blender_2.77/marsh_012.obj'... (0 vertices, 0 unique vertices, 1 materials) 0.0179074s
- loading '../../../Scenes/Blender_2.77/marsh_014.obj'... (0 vertices, 0 unique vertices, 1 materials) 0.0414519s
- loading '../../../Scenes/Blender_2.77/Cube_1432.obj'... - loading '../../../Scenes/Blender_2.77/Textures/Cube.1432/Cube.1432_t.png'... (2048 x 2048 x 3) 0.0376756s
(18456 vertices, 6984 unique vertices, 1 materials) 0.0985255s
- loading '../../../Scenes/Blender_2.77/Cylinder_403.obj'... - loading '../../../Scenes/Blender_2.77/Textures/Cylinder.403/Cylinder.403_t.png'... (256 x 256 x 3) 0.0165641s
(32103 vertices, 35201 unique vertices, 1 materials) 0.141443s
- loading '../../../Scenes/Blender_2.77/BezierCurve_002.obj'... (3552 vertices, 629 unique vertices, 1 materials) 0.0482586s
- loading '../../../Scenes/Blender_2.77/Cylinder_017.obj'... - loading '../../../Scenes/Blender_2.77/Textures/Cylinder.017/Cylinder.017_t.png'... (128 x 128 x 3) 0.0483851s
(327 vertices, 272 unique vertices, 1 materials) 0.0805124s
- loading '../../../Scenes/Blender_2.77/marsh_011.obj'... (0 vertices, 0 unique vertices, 1 materials) 0.0752976s
- loading '../../../Scenes/Blender_2.77/Spiral_003.obj'... (32448 vertices, 5746 unique vertices, 1 materials) 0.120844s
- loading '../../../Scenes/Blender_2.77/BezierCurve_022.obj'... (363 vertices, 0 unique vertices, 1 materials) 0.0542232s
- loading '../../../Scenes/Blender_2.77/Nut_006.obj'... - loading '../../../Scenes/Blender_2.77/Textures/Nut.006/Nut.006_t.png'... (32 x 32 x 3) 0.018184s
(4071 vertices, 4399 unique vertices, 1 materials) 0.0471834s
- loading '../../../Scenes/Blender_2.77/Cylinder_428.obj'... - loading '../../../Scenes/Blender_2.77/Textures/Cylinder.428/Cylinder.428_t.png'... (128 x 128 x 3) 0.00249828s
(1014 vertices, 1154 unique vertices, 1 materials) 0.0434516s
- loading '../../../Scenes/Blender_2.77/Cylinder_009.obj'... - loading '../../../Scenes/Blender_2.77/Textures/Cylinder.009/Cylinder.009_t.png'... (128 x 128 x 3) 0.0227233s
(2151 vertices, 1137 unique vertices, 1 materials) 0.0531094s
- loading '../../../Scenes/Blender_2.77/Bolt_012.obj'... - loading '../../../Scenes/Blender_2.77/Textures/Bolt.012/Bolt.012_t.png'... (32 x 32 x 3) 0.00149068s
(7512 vertices, 8459 unique vertices, 1 materials) 0.0321892s
- loading '../../../Scenes/Blender_2.77/Cylinder_053.obj'... - loading '../../../Scenes/Blender_2.77/Textures/Cylinder.053/Cylinder.053_t.png'... (128 x 128 x 3) 0.0815814s
(91443 vertices, 34222 unique vertices, 1 materials) 0.452755s
- loading '../../../Scenes/Blender_2.77/Cube_038.obj'... - loading '../../../Scenes/Blender_2.77/Textures/Cube.038/Cube.038_t.png'... (32 x 32 x 3) 0.032033s
(1446 vertices, 590 unique vertices, 1 materials) 0.171286s
- loading '../../../Scenes/Blender_2.77/BezierCurve_016.obj'... - loading '../../../Scenes/Blender_2.77/Textures/BezierCurve.016/BezierCurve.016_t.png'... (128 x 128 x 3) 0.00129175s
(3099 vertices, 1183 unique vertices, 1 materials) 0.038957s
- loading '../../../Scenes/Blender_2.77/Bolt_008.obj'... - loading '../../../Scenes/Blender_2.77/Textures/Bolt.008/Bolt.008_t.png'... (32 x 32 x 3) 0.0183262s
(7512 vertices, 8467 unique vertices, 1 materials) 0.066483s
- loading '../../../Scenes/Blender_2.77/Cube_1416.obj'... - loading '../../../Scenes/Blender_2.77/Textures/Cube.1416/Cube.1416_t.png'... (32 x 32 x 3) 0.0154032s
(18750 vertices, 19852 unique vertices, 1 materials) 0.115414s
- loading '../../../Scenes/Blender_2.77/Plane_033.obj'... - loading '../../../Scenes/Blender_2.77/Textures/Plane.033/Plane.033_t.png'... (2048 x 2048 x 3) 0.0533635s
(12 vertices, 4 unique vertices, 1 materials) 0.0670075s
- loading '../../../Scenes/Blender_2.77/marsh_007.obj'... (0 vertices, 0 unique vertices, 1 materials) 0.0149924s
- loading '../../../Scenes/Blender_2.77/Nut_009.obj'... - loading '../../../Scenes/Blender_2.77/Textures/Nut.009/Nut.009_t.png'... (32 x 32 x 3) 0.00551467s
(4071 vertices, 4385 unique vertices, 1 materials) 0.0481831s
- loading '../../../Scenes/Blender_2.77/Cylinder_024.obj'... - loading '../../../Scenes/Blender_2.77/Textures/Cylinder.024/Cylinder.024_t.png'... (256 x 256 x 3) 0.0135648s
(32103 vertices, 35201 unique vertices, 1 materials) 0.105156s
- loading '../../../Scenes/Blender_2.77/Bolt_004.obj'... - loading '../../../Scenes/Blender_2.77/Textures/Bolt.004/Bolt.004_t.png'... (32 x 32 x 3) 0.060861s
(256710 vertices, 324103 unique vertices, 1 materials) 0.820791s
- loading '../../../Scenes/Blender_2.77/BezierCircle_012.obj'... (4608 vertices, 833 unique vertices, 1 materials) 0.072308s
- loading '../../../Scenes/Blender_2.77/Cylinder_048.obj'... - loading '../../../Scenes/Blender_2.77/Textures/Cylinder.048/Cylinder.048_t.png'... (128 x 128 x 3) 0.00810947s
(91443 vertices, 34222 unique vertices, 1 materials) 0.270734s
- loading '../../../Scenes/Blender_2.77/twister_003.obj'... - loading '../../../Scenes/Blender_2.77/Textures/twister.003/twister.003_t.png'... (128 x 128 x 3) 0.0114683s
(10518 vertices, 4403 unique vertices, 1 materials) 0.081469s
- loading '../../../Scenes/Blender_2.77/Cylinder_439.obj'... (0 vertices, 0 unique vertices, 1 materials) 0.0292898s
- loading '../../../Scenes/Blender_2.77/Cylinder_405.obj'... - loading '../../../Scenes/Blender_2.77/Textures/Cylinder.405/Cylinder.405_t.png'... (512 x 512 x 3) 0.0202572s
(3600 vertices, 6336 unique vertices, 1 materials) 0.0858791s
- loading '../../../Scenes/Blender_2.77/BezierCurve_010.obj'... (4800 vertices, 850 unique vertices, 1 materials) 0.0427608s
- loading '../../../Scenes/Blender_2.77/Cube_043.obj'... - loading '../../../Scenes/Blender_2.77/Textures/Cube.043/Cube.043_t.png'... (8 x 8 x 3) 0.0265065s
(678 vertices, 290 unique vertices, 1 materials) 0.23447s
- loading '../../../Scenes/Blender_2.77/Cube_002.obj'... - loading '../../../Scenes/Blender_2.77/Textures/Cube.002/Cube.002_t.png'... (512 x 512 x 3) 0.102525s
(12078 vertices, 4657 unique vertices, 1 materials) 0.136962s
- loading '../../../Scenes/Blender_2.77/Cylinder_404.obj'... - loading '../../../Scenes/Blender_2.77/Textures/Cylinder.404/Cylinder.404_t.png'... (64 x 64 x 3) 0.0221784s
(129954 vertices, 52268 unique vertices, 1 materials) 0.32325s
- loading '../../../Scenes/Blender_2.77/Bolt_027.obj'... - loading '../../../Scenes/Blender_2.77/Textures/Bolt.027/Bolt.027_t.png'... (16 x 16 x 3) 0.0334698s
(7512 vertices, 8467 unique vertices, 1 materials) 0.270309s
- loading '../../../Scenes/Blender_2.77/BezierCurve_025.obj'... (1248 vertices, 221 unique vertices, 1 materials) 0.0370219s
- loading '../../../Scenes/Blender_2.77/Cylinder_008.obj'... - loading '../../../Scenes/Blender_2.77/Textures/Cylinder.008/Cylinder.008_t.png'... (128 x 128 x 3) 0.00647904s
(2151 vertices, 1137 unique vertices, 1 materials) 0.0865652s
- loading '../../../Scenes/Blender_2.77/Cylinder_424.obj'... - loading '../../../Scenes/Blender_2.77/Textures/Cylinder.424/Cylinder.424_t.png'... (64 x 64 x 3) 0.0235244s
(129954 vertices, 52268 unique vertices, 1 materials) 0.330339s
- loading '../../../Scenes/Blender_2.77/BezierCurve.obj'... (3552 vertices, 629 unique vertices, 1 materials) 0.0490091s
- loading '../../../Scenes/Blender_2.77/Cube_036.obj'... - loading '../../../Scenes/Blender_2.77/Textures/Cube.036/Cube.036_t.png'... (128 x 128 x 3) 0.0256202s
(1158 vertices, 494 unique vertices, 1 materials) 0.0419212s
- loading '../../../Scenes/Blender_2.77/BezierCircle_015.obj'... (4608 vertices, 833 unique vertices, 1 materials) 0.0395299s
- loading '../../../Scenes/Blender_2.77/BezierCircle_013.obj'... (4608 vertices, 833 unique vertices, 1 materials) 0.0213924s
- loading '../../../Scenes/Blender_2.77/Cylinder_018.obj'... - loading '../../../Scenes/Blender_2.77/Textures/Cylinder.018/Cylinder.018_t.png'... (256 x 256 x 3) 0.00983185s
(1584 vertices, 1524 unique vertices, 1 materials) 0.0773541s
- loading '../../../Scenes/Blender_2.77/Torus_007.obj'... - loading '../../../Scenes/Blender_2.77/Textures/Torus.007/Torus.007_t.png'... (512 x 512 x 3) 0.0359773s
(234630 vertices, 87608 unique vertices, 1 materials) 0.661831s
- loading '../../../Scenes/Blender_2.77/Cylinder_055.obj'... - loading '../../../Scenes/Blender_2.77/Textures/Cylinder.055/Cylinder.055_t.png'... (32 x 32 x 3) 0.0125468s
(3750 vertices, 1493 unique vertices, 1 materials) 0.0775111s
- loading '../../../Scenes/Blender_2.77/BezierCircle.obj'... (144 vertices, 0 unique vertices, 1 materials) 0.0555741s
- loading '../../../Scenes/Blender_2.77/Cube_1402.obj'... - loading '../../../Scenes/Blender_2.77/Textures/Cube.1402/Cube.1402_t.png'... (512 x 512 x 3) 0.0171244s
(4614 vertices, 1746 unique vertices, 1 materials) 0.0498385s
- loading '../../../Scenes/Blender_2.77/Cylinder_027.obj'... - loading '../../../Scenes/Blender_2.77/Textures/Cylinder.027/Cylinder.027_t.png'... (256 x 256 x 3) 0.0164544s
(32550 vertices, 12866 unique vertices, 1 materials) 0.194166s
- loading '../../../Scenes/Blender_2.77/Cube_1436.obj'... - loading '../../../Scenes/Blender_2.77/Textures/Cube.1436/Cube.1436_t.png'... (2048 x 2048 x 3) 0.0284227s
(18456 vertices, 6984 unique vertices, 1 materials) 0.108604s
- loading '../../../Scenes/Blender_2.77/Bolt_003.obj'... - loading '../../../Scenes/Blender_2.77/Textures/Bolt.003/Bolt.003_t.png'... (32 x 32 x 3) 0.00092419s
(7512 vertices, 8411 unique vertices, 1 materials) 0.0890382s
- loading '../../../Scenes/Blender_2.77/BezierCircle_008.obj'... (144 vertices, 0 unique vertices, 1 materials) 0.0477165s
- loading '../../../Scenes/Blender_2.77/BezierCircle_018.obj'... (4608 vertices, 833 unique vertices, 1 materials) 0.0390015s
- loading '../../../Scenes/Blender_2.77/Plane.obj'... - loading '../../../Scenes/Blender_2.77/Textures/Plane/Plane_t.png'... (2048 x 2048 x 3) 0.0302084s
(12 vertices, 4 unique vertices, 1 materials) 0.0428947s
- loading '../../../Scenes/Blender_2.77/Cube_015.obj'... - loading '../../../Scenes/Blender_2.77/Textures/Cube.015/Cube.015_t.png'... (64 x 64 x 3) 0.0102378s
(1446 vertices, 590 unique vertices, 1 materials) 0.0457087s
- loading '../../../Scenes/Blender_2.77/Cube_003.obj'... - loading '../../../Scenes/Blender_2.77/Textures/Cube.003/Cube.003_t.png'... (512 x 512 x 3) 0.0164688s
(12078 vertices, 4657 unique vertices, 1 materials) 0.0309996s
- loading '../../../Scenes/Blender_2.77/twister_004.obj'... - loading '../../../Scenes/Blender_2.77/Textures/twister.004/twister.004_t.png'... (128 x 128 x 3) 0.0204883s
(10518 vertices, 4403 unique vertices, 1 materials) 0.0574358s
- loading '../../../Scenes/Blender_2.77/marsh_002.obj'... (0 vertices, 0 unique vertices, 1 materials) 0.0274407s
- loading '../../../Scenes/Blender_2.77/Torus_005.obj'... - loading '../../../Scenes/Blender_2.77/Textures/Torus.005/Torus.005_t.png'... (64 x 64 x 3) 0.00358739s
(864 vertices, 432 unique vertices, 1 materials) 0.0418592s
- loading '../../../Scenes/Blender_2.77/Cylinder_054.obj'... - loading '../../../Scenes/Blender_2.77/Textures/Cylinder.054/Cylinder.054_t.png'... (32 x 32 x 3) 0.00135963s
(3750 vertices, 1493 unique vertices, 1 materials) 0.0194151s
- loading '../../../Scenes/Blender_2.77/BezierCurve_006.obj'... (4800 vertices, 850 unique vertices, 1 materials) 0.0436234s
- loading '../../../Scenes/Blender_2.77/Spiral_007.obj'... - loading '../../../Scenes/Blender_2.77/Textures/Spiral.007/Spiral.007_t.png'... (32 x 32 x 3) 0.0543582s
(726 vertices, 282 unique vertices, 1 materials) 0.0952392s
- loading '../../../Scenes/Blender_2.77/Cube_040.obj'... - loading '../../../Scenes/Blender_2.77/Textures/Cube.040/Cube.040_t.png'... (32 x 32 x 3) 0.021077s
(1446 vertices, 590 unique vertices, 1 materials) 0.047893s
- loading '../../../Scenes/Blender_2.77/Cube_1438.obj'... - loading '../../../Scenes/Blender_2.77/Textures/Cube.1438/Cube.1438_t.png'... (32 x 32 x 3) 0.0166805s
(1446 vertices, 644 unique vertices, 1 materials) 0.0503294s
- loading '../../../Scenes/Blender_2.77/Cube_1403.obj'... - loading '../../../Scenes/Blender_2.77/Textures/Cube.1403/Cube.1403_t.png'... (512 x 512 x 3) 0.00274888s
(4614 vertices, 1746 unique vertices, 1 materials) 0.0274786s
- loading '../../../Scenes/Blender_2.77/BezierCurve_008.obj'... (1248 vertices, 221 unique vertices, 1 materials) 0.0219328s
- loading '../../../Scenes/Blender_2.77/icecream_005.obj'... - loading '../../../Scenes/Blender_2.77/Textures/icecream.005/icecream.005_t.png'... (2048 x 2048 x 3) 0.076912s
(1193475 vertices, 421311 unique vertices, 1 materials) 10.9132s
- loading '../../../Scenes/Blender_2.77/Bolt_005.obj'... - loading '../../../Scenes/Blender_2.77/Textures/Bolt.005/Bolt.005_t.png'... (32 x 32 x 3) 0.00144893s
(256230 vertices, 312070 unique vertices, 1 materials) 0.725569s
- loading '../../../Scenes/Blender_2.77/icecream_004.obj'... - loading '../../../Scenes/Blender_2.77/Textures/icecream.004/icecream.004_t.png'... (2048 x 2048 x 3) 0.0808592s
(1193475 vertices, 421311 unique vertices, 1 materials) 10.9233s
- loading '../../../Scenes/Blender_2.77/Cylinder_007.obj'... - loading '../../../Scenes/Blender_2.77/Textures/Cylinder.007/Cylinder.007_t.png'... (128 x 128 x 3) 0.0190135s
(33990 vertices, 12782 unique vertices, 1 materials) 0.107684s
- loading '../../../Scenes/Blender_2.77/Cube_1435.obj'... - loading '../../../Scenes/Blender_2.77/Textures/Cube.1435/Cube.1435_t.png'... (2048 x 2048 x 3) 0.0438525s
(18456 vertices, 6984 unique vertices, 1 materials) 0.174221s
- loading '../../../Scenes/Blender_2.77/Cube_014.obj'... - loading '../../../Scenes/Blender_2.77/Textures/Cube.014/Cube.014_t.png'... (64 x 64 x 3) 0.012651s
(1446 vertices, 590 unique vertices, 1 materials) 0.0207141s
- loading '../../../Scenes/Blender_2.77/Nut_001.obj'... - loading '../../../Scenes/Blender_2.77/Textures/Nut.001/Nut.001_t.png'... (32 x 32 x 3) 0.00965102s
(4071 vertices, 4395 unique vertices, 1 materials) 0.0558392s
- loading '../../../Scenes/Blender_2.77/Cube_011.obj'... - loading '../../../Scenes/Blender_2.77/Textures/Cube.011/Cube.011_t.png'... (256 x 256 x 3) 0.0249546s
(7980 vertices, 3192 unique vertices, 1 materials) 0.0669241s
- loading '../../../Scenes/Blender_2.77/Cube_012.obj'... - loading '../../../Scenes/Blender_2.77/Textures/Cube.012/Cube.012_t.png'... (32 x 32 x 3) 0.0190798s
(486 vertices, 236 unique vertices, 1 materials) 0.0401125s
- loading '../../../Scenes/Blender_2.77/Spiral_008.obj'... - loading '../../../Scenes/Blender_2.77/Textures/Spiral.008/Spiral.008_t.png'... (32 x 32 x 3) 0.0174656s
(726 vertices, 282 unique vertices, 1 materials) 0.0415622s
- loading '../../../Scenes/Blender_2.77/BezierCurve_004.obj'... (2400 vertices, 425 unique vertices, 1 materials) 0.0344308s
- loading '../../../Scenes/Blender_2.77/BezierCurve_021.obj'... (1248 vertices, 221 unique vertices, 1 materials) 0.0565655s
- loading '../../../Scenes/Blender_2.77/Cylinder_002.obj'... - loading '../../../Scenes/Blender_2.77/Textures/Cylinder.002/Cylinder.002_t.png'... (128 x 128 x 3) 0.0350802s
(48102 vertices, 18626 unique vertices, 1 materials) 0.150231s
- loading '../../../Scenes/Blender_2.77/Cube_1405.obj'... - loading '../../../Scenes/Blender_2.77/Textures/Cube.1405/Cube.1405_t.png'... (32 x 32 x 3) 0.00114533s
(486 vertices, 234 unique vertices, 1 materials) 0.0418923s
- loading '../../../Scenes/Blender_2.77/BezierCurve_018.obj'... - loading '../../../Scenes/Blender_2.77/Textures/BezierCurve.018/BezierCurve.018_t.png'... (256 x 256 x 3) 0.0420426s
(7971 vertices, 2997 unique vertices, 1 materials) 0.100369s
- loading '../../../Scenes/Blender_2.77/icecream_003.obj'... - loading '../../../Scenes/Blender_2.77/Textures/icecream.003/icecream.003_t.png'... (2048 x 2048 x 3) 0.205443s
(1181187 vertices, 413383 unique vertices, 1 materials) 11.1139s
- loading '../../../Scenes/Blender_2.77/Cube_1431.obj'... - loading '../../../Scenes/Blender_2.77/Textures/Cube.1431/Cube.1431_t.png'... (2048 x 2048 x 3) 0.027728s
(18456 vertices, 6984 unique vertices, 1 materials) 0.094561s
- loading '../../../Scenes/Blender_2.77/Cube_037.obj'... - loading '../../../Scenes/Blender_2.77/Textures/Cube.037/Cube.037_t.png'... (32 x 32 x 3) 0.00105932s
(1158 vertices, 494 unique vertices, 1 materials) 0.0221018s
- loading '../../../Scenes/Blender_2.77/Empty_001.obj'... (0 vertices, 0 unique vertices, 1 materials) 0.0624353s
- loading '../../../Scenes/Blender_2.77/Cube_048.obj'... - loading '../../../Scenes/Blender_2.77/Textures/Cube.048/Cube.048_t.png'... (128 x 128 x 3) 0.00998119s
(29646 vertices, 14096 unique vertices, 1 materials) 0.134854s
- loading '../../../Scenes/Blender_2.77/icecream_008.obj'... - loading '../../../Scenes/Blender_2.77/Textures/icecream.008/icecream.008_t.png'... (2048 x 2048 x 3) 0.139807s
(1193475 vertices, 421306 unique vertices, 1 materials) 10.7287s
- loading '../../../Scenes/Blender_2.77/Torus_014.obj'... - loading '../../../Scenes/Blender_2.77/Textures/Torus.014/Torus.014_t.png'... (16 x 16 x 3) 0.00109691s
(864 vertices, 432 unique vertices, 1 materials) 0.0403019s
- loading '../../../Scenes/Blender_2.77/Cylinder_056.obj'... - loading '../../../Scenes/Blender_2.77/Textures/Cylinder.056/Cylinder.056_t.png'... (32 x 32 x 3) 0.00636221s
(2598 vertices, 1010 unique vertices, 1 materials) 0.0276374s
- loading '../../../Scenes/Blender_2.77/Cube_008.obj'... - loading '../../../Scenes/Blender_2.77/Textures/Cube.008/Cube.008_t.png'... (128 x 128 x 3) 0.0245179s
(29646 vertices, 14096 unique vertices, 1 materials) 0.0775541s
- loading '../../../Scenes/Blender_2.77/Cylinder_407.obj'... - loading '../../../Scenes/Blender_2.77/Textures/Cylinder.407/Cylinder.407_t.png'... (512 x 512 x 3) 0.00699815s
(13467 vertices, 5190 unique vertices, 1 materials) 0.0817123s
- loading '../../../Scenes/Blender_2.77/Bolt_002.obj'... - loading '../../../Scenes/Blender_2.77/Textures/Bolt.002/Bolt.002_t.png'... (32 x 32 x 3) 0.00857943s
(7512 vertices, 8415 unique vertices, 1 materials) 0.0697084s
- loading '../../../Scenes/Blender_2.77/BezierCircle_011.obj'... (144 vertices, 0 unique vertices, 1 materials) 0.0169042s
- loading '../../../Scenes/Blender_2.77/Bolt_018.obj'... - loading '../../../Scenes/Blender_2.77/Textures/Bolt.018/Bolt.018_t.png'... (32 x 32 x 3) 0.00893353s
(7512 vertices, 8423 unique vertices, 1 materials) 0.0662825s
- loading '../../../Scenes/Blender_2.77/Bolt_001.obj'... - loading '../../../Scenes/Blender_2.77/Textures/Bolt.001/Bolt.001_t.png'... (32 x 32 x 3) 0.0127993s
(7512 vertices, 8375 unique vertices, 1 materials) 0.054658s
- loading '../../../Scenes/Blender_2.77/Cylinder_004.obj'... - loading '../../../Scenes/Blender_2.77/Textures/Cylinder.004/Cylinder.004_t.png'... (128 x 128 x 3) 0.0211837s
(48102 vertices, 18626 unique vertices, 1 materials) 0.25091s
- loading '../../../Scenes/Blender_2.77/Cylinder_426.obj'... - loading '../../../Scenes/Blender_2.77/Textures/Cylinder.426/Cylinder.426_t.png'... (64 x 64 x 3) 0.02487s
(129954 vertices, 52268 unique vertices, 1 materials) 0.361781s
- loading '../../../Scenes/Blender_2.77/Cylinder_049.obj'... - loading '../../../Scenes/Blender_2.77/Textures/Cylinder.049/Cylinder.049_t.png'... (128 x 128 x 3) 0.0229897s
(91443 vertices, 34222 unique vertices, 1 materials) 0.256857s
- loading '../../../Scenes/Blender_2.77/Cylinder_020.obj'... - loading '../../../Scenes/Blender_2.77/Textures/Cylinder.020/Cylinder.020_t.png'... (128 x 128 x 3) 0.00203644s
(711 vertices, 675 unique vertices, 1 materials) 0.0292746s
- loading '../../../Scenes/Blender_2.77/Cube_013.obj'... - loading '../../../Scenes/Blender_2.77/Textures/Cube.013/Cube.013_t.png'... (32 x 32 x 3) 0.0304063s
(486 vertices, 236 unique vertices, 1 materials) 0.0781585s
- loading '../../../Scenes/Blender_2.77/Cube_039.obj'... - loading '../../../Scenes/Blender_2.77/Textures/Cube.039/Cube.039_t.png'... (32 x 32 x 3) 0.00127525s
(1446 vertices, 590 unique vertices, 1 materials) 0.0151907s
- loading '../../../Scenes/Blender_2.77/Cube_035.obj'... - loading '../../../Scenes/Blender_2.77/Textures/Cube.035/Cube.035_t.png'... (1024 x 1024 x 3) 0.0704199s
(62514 vertices, 23019 unique vertices, 1 materials) 0.172758s
- loading '../../../Scenes/Blender_2.77/Spiral.obj'... (78 vertices, 0 unique vertices, 1 materials) 0.0504766s
- loading '../../../Scenes/Blender_2.77/Torus_021.obj'... - loading '../../../Scenes/Blender_2.77/Textures/Torus.021/Torus.021_t.png'... (512 x 512 x 3) 0.0239604s
(13824 vertices, 5132 unique vertices, 1 materials) 0.0709925s
- loading '../../../Scenes/Blender_2.77/BezierCurve_003.obj'... (3552 vertices, 629 unique vertices, 1 materials) 0.0373633s
- loading '../../../Scenes/Blender_2.77/Plane_002.obj'... - loading '../../../Scenes/Blender_2.77/Textures/Plane.002/Plane.002_t.png'... (2048 x 2048 x 3) 0.0324428s
(12 vertices, 4 unique vertices, 1 materials) 0.0554379s
- loading '../../../Scenes/Blender_2.77/Cylinder.obj'... - loading '../../../Scenes/Blender_2.77/Textures/Cylinder/Cylinder_t.png'... (256 x 256 x 3) 0.0247815s
(17487 vertices, 6489 unique vertices, 1 materials) 0.081379s
- loading '../../../Scenes/Blender_2.77/BezierCurve_019.obj'... - loading '../../../Scenes/Blender_2.77/Textures/BezierCurve.019/BezierCurve.019_t.png'... (256 x 256 x 3) 0.00272768s
(7971 vertices, 2997 unique vertices, 1 materials) 0.0453578s
- loading '../../../Scenes/Blender_2.77/Cube_1408.obj'... - loading '../../../Scenes/Blender_2.77/Textures/Cube.1408/Cube.1408_t.png'... (64 x 64 x 3) 0.0012417s
(486 vertices, 236 unique vertices, 1 materials) 0.047962s
- loading '../../../Scenes/Blender_2.77/BezierCurve_001.obj'... (3552 vertices, 629 unique vertices, 1 materials) 0.0608899s
- loading '../../../Scenes/Blender_2.77/Cylinder_436.obj'... - loading '../../../Scenes/Blender_2.77/Textures/Cylinder.436/Cylinder.436_t.png'... (2048 x 2048 x 3) 0.0723562s
(23424 vertices, 8052 unique vertices, 1 materials) 0.192574s
- loading '../../../Scenes/Blender_2.77/Torus_016.obj'... - loading '../../../Scenes/Blender_2.77/Textures/Torus.016/Torus.016_t.png'... (16 x 16 x 3) 0.0336353s
(864 vertices, 432 unique vertices, 1 materials) 0.0803891s
- loading '../../../Scenes/Blender_2.77/Cube_1413.obj'... - loading '../../../Scenes/Blender_2.77/Textures/Cube.1413/Cube.1413_t.png'... (256 x 256 x 3) 0.00460991s
(4614 vertices, 1746 unique vertices, 1 materials) 0.0898833s
- loading '../../../Scenes/Blender_2.77/Cylinder_410.obj'... - loading '../../../Scenes/Blender_2.77/Textures/Cylinder.410/Cylinder.410_t.png'... (128 x 128 x 3) 0.00332736s
(1332 vertices, 726 unique vertices, 1 materials) 0.0191393s
- loading '../../../Scenes/Blender_2.77/BezierCircle_010.obj'... (4608 vertices, 833 unique vertices, 1 materials) 0.0715768s
- loading '../../../Scenes/Blender_2.77/Torus_002.obj'... - loading '../../../Scenes/Blender_2.77/Textures/Torus.002/Torus.002_t.png'... (512 x 512 x 3) 0.0438429s
(234630 vertices, 87608 unique vertices, 1 materials) 0.729808s
- loading '../../../Scenes/Blender_2.77/Sphere_027.obj'... - loading '../../../Scenes/Blender_2.77/Textures/Sphere.027/Sphere.027_t.png'... (128 x 128 x 3) 0.0429582s
(34566 vertices, 12389 unique vertices, 1 materials) 0.172018s
- loading '../../../Scenes/Blender_2.77/Cube_1410.obj'... - loading '../../../Scenes/Blender_2.77/Textures/Cube.1410/Cube.1410_t.png'... (1024 x 1024 x 3) 0.0473772s
(24 vertices, 24 unique vertices, 1 materials) 0.0492569s
- loading '../../../Scenes/Blender_2.77/Cylinder_044.obj'... - loading '../../../Scenes/Blender_2.77/Textures/Cylinder.044/Cylinder.044_t.png'... (64 x 64 x 3) 0.0189679s
(129954 vertices, 52268 unique vertices, 1 materials) 0.330951s
- loading '../../../Scenes/Blender_2.77/Bolt_021.obj'... - loading '../../../Scenes/Blender_2.77/Textures/Bolt.021/Bolt.021_t.png'... (16 x 16 x 3) 0.0289108s
(7512 vertices, 8467 unique vertices, 1 materials) 0.121109s
- loading '../../../Scenes/Blender_2.77/Nut_004.obj'... - loading '../../../Scenes/Blender_2.77/Textures/Nut.004/Nut.004_t.png'... (32 x 32 x 3) 0.00605032s
(4071 vertices, 4379 unique vertices, 1 materials) 0.0362209s
- loading '../../../Scenes/Blender_2.77/Cylinder_015.obj'... - loading '../../../Scenes/Blender_2.77/Textures/Cylinder.015/Cylinder.015_t.png'... (256 x 256 x 3) 0.00697209s
(32103 vertices, 35201 unique vertices, 1 materials) 0.115934s
- loading '../../../Scenes/Blender_2.77/Cylinder_028.obj'... - loading '../../../Scenes/Blender_2.77/Textures/Cylinder.028/Cylinder.028_t.png'... (64 x 64 x 3) 0.0252871s
(129954 vertices, 52268 unique vertices, 1 materials) 0.321474s
- loading '../../../Scenes/Blender_2.77/Bolt_015.obj'... - loading '../../../Scenes/Blender_2.77/Textures/Bolt.015/Bolt.015_t.png'... (32 x 32 x 3) 0.0012925s
(7512 vertices, 8481 unique vertices, 1 materials) 0.0767591s
- loading '../../../Scenes/Blender_2.77/Bolt_026.obj'... - loading '../../../Scenes/Blender_2.77/Textures/Bolt.026/Bolt.026_t.png'... (16 x 16 x 3) 0.0178701s
(7512 vertices, 8467 unique vertices, 1 materials) 0.0418253s
- loading '../../../Scenes/Blender_2.77/Cylinder_059.obj'... - loading '../../../Scenes/Blender_2.77/Textures/Cylinder.059/Cylinder.059_t.png'... (32 x 32 x 3) 0.00159016s
(144 vertices, 144 unique vertices, 1 materials) 0.013139s
- loading '../../../Scenes/Blender_2.77/Cylinder_042.obj'... - loading '../../../Scenes/Blender_2.77/Textures/Cylinder.042/Cylinder.042_t.png'... (64 x 64 x 3) 0.0258901s
(129954 vertices, 52268 unique vertices, 1 materials) 0.318929s
- loading '../../../Scenes/Blender_2.77/icecream_002.obj'... - loading '../../../Scenes/Blender_2.77/Textures/icecream.002/icecream.002_t.png'... (2048 x 2048 x 3) 0.130197s
(1181187 vertices, 413383 unique vertices, 1 materials) 10.7068s
- loading '../../../Scenes/Blender_2.77/Bolt_031.obj'... - loading '../../../Scenes/Blender_2.77/Textures/Bolt.031/Bolt.031_t.png'... (32 x 32 x 3) 0.00723037s
(256230 vertices, 303224 unique vertices, 1 materials) 0.719531s
- loading '../../../Scenes/Blender_2.77/twister.obj'... - loading '../../../Scenes/Blender_2.77/Textures/twister/twister_t.png'... (256 x 256 x 3) 0.0372704s
(10518 vertices, 4403 unique vertices, 1 materials) 0.0644553s
- loading '../../../Scenes/Blender_2.77/Cylinder_022.obj'... - loading '../../../Scenes/Blender_2.77/Textures/Cylinder.022/Cylinder.022_t.png'... (128 x 128 x 3) 0.0346496s
(711 vertices, 675 unique vertices, 1 materials) 0.0619499s
- loading '../../../Scenes/Blender_2.77/Cube_060.obj'... - loading '../../../Scenes/Blender_2.77/Textures/Cube.060/Cube.060_t.png'... (64 x 64 x 3) 0.0217364s
(1446 vertices, 590 unique vertices, 1 materials) 0.0584198s
- loading '../../../Scenes/Blender_2.77/Cube_1437.obj'... - loading '../../../Scenes/Blender_2.77/Textures/Cube.1437/Cube.1437_t.png'... (2048 x 2048 x 3) 0.0549794s
(18456 vertices, 6984 unique vertices, 1 materials) 0.125885s
- loading '../../../Scenes/Blender_2.77/Cube_016.obj'... - loading '../../../Scenes/Blender_2.77/Textures/Cube.016/Cube.016_t.png'... (64 x 64 x 3) 0.0667804s
(1446 vertices, 590 unique vertices, 1 materials) 0.0830482s
- loading '../../../Scenes/Blender_2.77/Cube_005.obj'... - loading '../../../Scenes/Blender_2.77/Textures/Cube.005/Cube.005_t.png'... (512 x 512 x 3) 0.0513344s
(12870 vertices, 5110 unique vertices, 1 materials) 0.130215s
- loading '../../../Scenes/Blender_2.77/Bolt_017.obj'... - loading '../../../Scenes/Blender_2.77/Textures/Bolt.017/Bolt.017_t.png'... (32 x 32 x 3) 0.00692809s
(7512 vertices, 8467 unique vertices, 1 materials) 0.0765079s
- loading '../../../Scenes/Blender_2.77/Cylinder_046.obj'... - loading '../../../Scenes/Blender_2.77/Textures/Cylinder.046/Cylinder.046_t.png'... (128 x 128 x 3) 0.0186038s
(92595 vertices, 34606 unique vertices, 1 materials) 0.225048s
- loading '../../../Scenes/Blender_2.77/Sphere_026.obj'... - loading '../../../Scenes/Blender_2.77/Textures/Sphere.026/Sphere.026_t.png'... (128 x 128 x 3) 0.0121401s
(37830 vertices, 13925 unique vertices, 1 materials) 0.106138s
- loading '../../../Scenes/Blender_2.77/Cylinder_043.obj'... - loading '../../../Scenes/Blender_2.77/Textures/Cylinder.043/Cylinder.043_t.png'... (64 x 64 x 3) 0.0181768s
(129954 vertices, 52268 unique vertices, 1 materials) 0.35041s
- loading '../../../Scenes/Blender_2.77/Cylinder_423.obj'... - loading '../../../Scenes/Blender_2.77/Textures/Cylinder.423/Cylinder.423_t.png'... (256 x 256 x 3) 0.00310595s
(32103 vertices, 35203 unique vertices, 1 materials) 0.149592s
- loading '../../../Scenes/Blender_2.77/Cube_020.obj'... - loading '../../../Scenes/Blender_2.77/Textures/Cube.020/Cube.020_t.png'... (256 x 256 x 3) 0.0057476s
(6918 vertices, 2772 unique vertices, 1 materials) 0.0354881s
- loading '../../../Scenes/Blender_2.77/Cube_041.obj'... - loading '../../../Scenes/Blender_2.77/Textures/Cube.041/Cube.041_t.png'... (128 x 128 x 3) 0.00483534s
(4230 vertices, 1634 unique vertices, 1 materials) 0.0217031s
- loading '../../../Scenes/Blender_2.77/BezierCurve_026.obj'... - loading '../../../Scenes/Blender_2.77/Textures/BezierCurve.026/BezierCurve.026_t.png'... (512 x 512 x 3) 0.0191138s
(720 vertices, 255 unique vertices, 1 materials) 0.0618001s
- loading '../../../Scenes/Blender_2.77/Spiral_001.obj'... (24576 vertices, 4352 unique vertices, 1 materials) 0.055493s
- loading '../../../Scenes/Blender_2.77/Cube_1428.obj'... - loading '../../../Scenes/Blender_2.77/Textures/Cube.1428/Cube.1428_t.png'... (1024 x 1024 x 3) 0.0279434s
(18456 vertices, 6984 unique vertices, 1 materials) 0.105012s
- loading '../../../Scenes/Blender_2.77/Cylinder_050.obj'... - loading '../../../Scenes/Blender_2.77/Textures/Cylinder.050/Cylinder.050_t.png'... (128 x 128 x 3) 0.0928058s
(91443 vertices, 34222 unique vertices, 1 materials) 0.325923s
- loading '../../../Scenes/Blender_2.77/Bolt_009.obj'... - loading '../../../Scenes/Blender_2.77/Textures/Bolt.009/Bolt.009_t.png'... (32 x 32 x 3) 0.00954336s
(7512 vertices, 8467 unique vertices, 1 materials) 0.0613135s
- loading '../../../Scenes/Blender_2.77/Nut_005.obj'... - loading '../../../Scenes/Blender_2.77/Textures/Nut.005/Nut.005_t.png'... (32 x 32 x 3) 0.00630886s
(4071 vertices, 4399 unique vertices, 1 materials) 0.0701636s
- loading '../../../Scenes/Blender_2.77/Torus_003.obj'... - loading '../../../Scenes/Blender_2.77/Textures/Torus.003/Torus.003_t.png'... (64 x 64 x 3) 0.0012842s
(864 vertices, 432 unique vertices, 1 materials) 0.0404287s
- loading '../../../Scenes/Blender_2.77/twister_001.obj'... - loading '../../../Scenes/Blender_2.77/Textures/twister.001/twister.001_t.png'... (256 x 256 x 3) 0.0485992s
(10518 vertices, 4403 unique vertices, 1 materials) 0.0853793s
- loading '../../../Scenes/Blender_2.77/Cylinder_413.obj'... - loading '../../../Scenes/Blender_2.77/Textures/Cylinder.413/Cylinder.413_t.png'... (512 x 512 x 3) 0.0344587s
(13467 vertices, 5190 unique vertices, 1 materials) 0.0887202s
- loading '../../../Scenes/Blender_2.77/BezierCurve_017.obj'... (1248 vertices, 221 unique vertices, 1 materials) 0.00441497s
- loading '../../../Scenes/Blender_2.77/Bolt_033.obj'... - loading '../../../Scenes/Blender_2.77/Textures/Bolt.033/Bolt.033_t.png'... (32 x 32 x 3) 0.00122166s
(256710 vertices, 305151 unique vertices, 1 materials) 0.682106s
- loading '../../../Scenes/Blender_2.77/Cylinder_047.obj'... - loading '../../../Scenes/Blender_2.77/Textures/Cylinder.047/Cylinder.047_t.png'... (128 x 128 x 3) 0.0237404s
(91443 vertices, 34222 unique vertices, 1 materials) 0.228178s
- loading '../../../Scenes/Blender_2.77/BezierCircle_009.obj'... (4608 vertices, 833 unique vertices, 1 materials) 0.0702824s
- loading '../../../Scenes/Blender_2.77/BezierCircle_007.obj'... (4608 vertices, 833 unique vertices, 1 materials) 0.0606917s
- loading '../../../Scenes/Blender_2.77/twister_009.obj'... - loading '../../../Scenes/Blender_2.77/Textures/twister.009/twister.009_t.png'... (256 x 256 x 3) 0.0575956s
(10518 vertices, 4391 unique vertices, 1 materials) 0.098735s
- loading '../../../Scenes/Blender_2.77/Bolt_019.obj'... - loading '../../../Scenes/Blender_2.77/Textures/Bolt.019/Bolt.019_t.png'... (32 x 32 x 3) 0.0017502s
(7512 vertices, 8455 unique vertices, 1 materials) 0.0847206s
- loading '../../../Scenes/Blender_2.77/twister_011.obj'... - loading '../../../Scenes/Blender_2.77/Textures/twister.011/twister.011_t.png'... (64 x 64 x 3) 0.00152547s
(10518 vertices, 4403 unique vertices, 1 materials) 0.0952496s
- loading '../../../Scenes/Blender_2.77/Cube_1404.obj'... - loading '../../../Scenes/Blender_2.77/Textures/Cube.1404/Cube.1404_t.png'... (32 x 32 x 3) 0.014387s
(486 vertices, 234 unique vertices, 1 materials) 0.0517524s
- loading '../../../Scenes/Blender_2.77/Nut_010.obj'... - loading '../../../Scenes/Blender_2.77/Textures/Nut.010/Nut.010_t.png'... (32 x 32 x 3) 0.0207395s
(4071 vertices, 4397 unique vertices, 1 materials) 0.0561212s
- loading '../../../Scenes/Blender_2.77/Cube_1440.obj'... - loading '../../../Scenes/Blender_2.77/Textures/Cube.1440/Cube.1440_t.png'... (2048 x 2048 x 3) 0.0282274s
(18456 vertices, 6984 unique vertices, 1 materials) 0.125732s
- loading '../../../Scenes/Blender_2.77/twister_005.obj'... - loading '../../../Scenes/Blender_2.77/Textures/twister.005/twister.005_t.png'... (256 x 256 x 3) 0.0150793s
(10518 vertices, 4403 unique vertices, 1 materials) 0.0638498s
- loading '../../../Scenes/Blender_2.77/BezierCurve_005.obj'... (75 vertices, 0 unique vertices, 1 materials) 0.0198835s
- loading '../../../Scenes/Blender_2.77/choc_001.obj'... - loading '../../../Scenes/Blender_2.77/Textures/choc.001/choc.001_t.png'... (256 x 256 x 3) 0.0159718s
(1158 vertices, 483 unique vertices, 1 materials) 0.0483405s
- loading '../../../Scenes/Blender_2.77/Cylinder_060.obj'... - loading '../../../Scenes/Blender_2.77/Textures/Cylinder.060/Cylinder.060_t.png'... (256 x 256 x 3) 0.0191101s
(38022 vertices, 14037 unique vertices, 1 materials) 0.0855625s
- loading '../../../Scenes/Blender_2.77/Cube_1409.obj'... - loading '../../../Scenes/Blender_2.77/Textures/Cube.1409/Cube.1409_t.png'... (64 x 64 x 3) 0.012806s
(486 vertices, 236 unique vertices, 1 materials) 0.161712s
- loading '../../../Scenes/Blender_2.77/Cube_1430.obj'... - loading '../../../Scenes/Blender_2.77/Textures/Cube.1430/Cube.1430_t.png'... (2048 x 2048 x 3) 0.0374722s
(18456 vertices, 6984 unique vertices, 1 materials) 0.100856s
- loading '../../../Scenes/Blender_2.77/twister_008.obj'... - loading '../../../Scenes/Blender_2.77/Textures/twister.008/twister.008_t.png'... (256 x 256 x 3) 0.00912397s
(10518 vertices, 4403 unique vertices, 1 materials) 0.0584453s
- loading '../../../Scenes/Blender_2.77/marsh_013.obj'... (0 vertices, 0 unique vertices, 1 materials) 0.027806s
- loading '../../../Scenes/Blender_2.77/Cube_047.obj'... - loading '../../../Scenes/Blender_2.77/Textures/Cube.047/Cube.047_t.png'... (128 x 128 x 3) 0.00667902s
(35256 vertices, 41919 unique vertices, 1 materials) 0.0802803s
- loading '../../../Scenes/Blender_2.77/Cylinder_427.obj'... - loading '../../../Scenes/Blender_2.77/Textures/Cylinder.427/Cylinder.427_t.png'... (128 x 128 x 3) 0.00829433s
(504 vertices, 552 unique vertices, 1 materials) 0.0393536s
- loading '../../../Scenes/Blender_2.77/Cube_1406.obj'... - loading '../../../Scenes/Blender_2.77/Textures/Cube.1406/Cube.1406_t.png'... (512 x 512 x 3) 0.015553s
(4614 vertices, 1746 unique vertices, 1 materials) 0.0545785s
- loading '../../../Scenes/Blender_2.77/Torus_015.obj'... - loading '../../../Scenes/Blender_2.77/Textures/Torus.015/Torus.015_t.png'... (32 x 32 x 3) 0.00146591s
(864 vertices, 1152 unique vertices, 1 materials) 0.0293636s
- loading '../../../Scenes/Blender_2.77/marsh_004.obj'... (0 vertices, 0 unique vertices, 1 materials) 0.0187044s
- loading '../../../Scenes/Blender_2.77/Plane_032.obj'... - loading '../../../Scenes/Blender_2.77/Textures/Plane.032/Plane.032_t.png'... (2048 x 2048 x 3) 0.102553s
(12 vertices, 4 unique vertices, 1 materials) 0.107492s
- loading '../../../Scenes/Blender_2.77/BezierCircle_017.obj'... (4608 vertices, 833 unique vertices, 1 materials) 0.0113421s
- loading '../../../Scenes/Blender_2.77/Cube_007.obj'... - loading '../../../Scenes/Blender_2.77/Textures/Cube.007/Cube.007_t.png'... (128 x 128 x 3) 0.015701s
(4230 vertices, 1634 unique vertices, 1 materials) 0.0307871s
- loading '../../../Scenes/Blender_2.77/Cylinder_016.obj'... - loading '../../../Scenes/Blender_2.77/Textures/Cylinder.016/Cylinder.016_t.png'... (256 x 256 x 3) 0.0878532s
(55590 vertices, 21384 unique vertices, 1 materials) 0.210305s
- loading '../../../Scenes/Blender_2.77/twister_002.obj'... - loading '../../../Scenes/Blender_2.77/Textures/twister.002/twister.002_t.png'... (64 x 64 x 3) 0.00671503s
(10518 vertices, 4403 unique vertices, 1 materials) 0.0603291s
- loading '../../../Scenes/Blender_2.77/BezierCurve_011.obj'... (2400 vertices, 425 unique vertices, 1 materials) 0.0575539s
- loading '../../../Scenes/Blender_2.77/Bolt_013.obj'... - loading '../../../Scenes/Blender_2.77/Textures/Bolt.013/Bolt.013_t.png'... (32 x 32 x 3) 0.0174571s
(7512 vertices, 8459 unique vertices, 1 materials) 0.0764528s
- loading '../../../Scenes/Blender_2.77/twister_012.obj'... - loading '../../../Scenes/Blender_2.77/Textures/twister.012/twister.012_t.png'... (64 x 64 x 3) 0.000994663s
(10518 vertices, 4391 unique vertices, 1 materials) 0.0343122s
- loading '../../../Scenes/Blender_2.77/BezierCircle_014.obj'... (4608 vertices, 833 unique vertices, 1 materials) 0.0641606s
- loading '../../../Scenes/Blender_2.77/Torus_009.obj'... - loading '../../../Scenes/Blender_2.77/Textures/Torus.009/Torus.009_t.png'... (64 x 64 x 3) 0.0116719s
(864 vertices, 432 unique vertices, 1 materials) 0.05474s
- loading '../../../Scenes/Blender_2.77/Cylinder_408.obj'... - loading '../../../Scenes/Blender_2.77/Textures/Cylinder.408/Cylinder.408_t.png'... (512 x 512 x 3) 0.0357665s
(3600 vertices, 6336 unique vertices, 1 materials) 0.0610949s
- loading '../../../Scenes/Blender_2.77/Cube_045.obj'... - loading '../../../Scenes/Blender_2.77/Textures/Cube.045/Cube.045_t.png'... (128 x 128 x 3) 0.0326386s
(18462 vertices, 6831 unique vertices, 1 materials) 0.124407s
- loading '../../../Scenes/Blender_2.77/Cylinder_414.obj'... - loading '../../../Scenes/Blender_2.77/Textures/Cylinder.414/Cylinder.414_t.png'... (256 x 256 x 3) 0.00270658s
(3600 vertices, 6336 unique vertices, 1 materials) 0.0917595s
- loading '../../../Scenes/Blender_2.77/marsh.obj'... (0 vertices, 0 unique vertices, 1 materials) 0.0231211s
- loading '../../../Scenes/Blender_2.77/twister_015.obj'... - loading '../../../Scenes/Blender_2.77/Textures/twister.015/twister.015_t.png'... (256 x 256 x 3) 0.00323282s
(10518 vertices, 4403 unique vertices, 1 materials) 0.0540401s
- loading '../../../Scenes/Blender_2.77/Cylinder_045.obj'... - loading '../../../Scenes/Blender_2.77/Textures/Cylinder.045/Cylinder.045_t.png'... (256 x 256 x 3) 0.0265011s
(32103 vertices, 35203 unique vertices, 1 materials) 0.112463s
- loading '../../../Scenes/Blender_2.77/Bolt_006.obj'... - loading '../../../Scenes/Blender_2.77/Textures/Bolt.006/Bolt.006_t.png'... (32 x 32 x 3) 0.0201275s
(7512 vertices, 8481 unique vertices, 1 materials) 0.0559854s
- loading '../../../Scenes/Blender_2.77/Cube_062.obj'... - loading '../../../Scenes/Blender_2.77/Textures/Cube.062/Cube.062_t.png'... (64 x 64 x 3) 0.0171575s
(1446 vertices, 590 unique vertices, 1 materials) 0.0217152s
- loading '../../../Scenes/Blender_2.77/Cube_1434.obj'... - loading '../../../Scenes/Blender_2.77/Textures/Cube.1434/Cube.1434_t.png'... (1024 x 1024 x 3) 0.0233958s
(18456 vertices, 6984 unique vertices, 1 materials) 0.0753563s
- loading '../../../Scenes/Blender_2.77/Bolt_022.obj'... - loading '../../../Scenes/Blender_2.77/Textures/Bolt.022/Bolt.022_t.png'... (16 x 16 x 3) 0.0165524s
(7512 vertices, 8467 unique vertices, 1 materials) 0.0497025s
- loading '../../../Scenes/Blender_2.77/Cube_1415.obj'... - loading '../../../Scenes/Blender_2.77/Textures/Cube.1415/Cube.1415_t.png'... (128 x 128 x 3) 0.0225639s
(4614 vertices, 1746 unique vertices, 1 materials) 0.111005s
- loading '../../../Scenes/Blender_2.77/BezierCircle_016.obj'... (4608 vertices, 833 unique vertices, 1 materials) 0.0288645s
- loading '../../../Scenes/Blender_2.77/marsh_010.obj'... (0 vertices, 0 unique vertices, 1 materials) 0.0113993s
- loading '../../../Scenes/Blender_2.77/Torus_008.obj'... - loading '../../../Scenes/Blender_2.77/Textures/Torus.008/Torus.008_t.png'... (512 x 512 x 3) 0.0281406s
(234630 vertices, 87608 unique vertices, 1 materials) 0.640213s
- loading '../../../Scenes/Blender_2.77/marsh_008.obj'... (0 vertices, 0 unique vertices, 1 materials) 0.0230625s
- loading '../../../Scenes/Blender_2.77/Plane_034.obj'... - loading '../../../Scenes/Blender_2.77/Textures/Plane.034/Plane.034_t.png'... (2048 x 2048 x 3) 0.035372s
(12 vertices, 4 unique vertices, 1 materials) 0.0650043s
- loading '../../../Scenes/Blender_2.77/Cylinder_023.obj'... - loading '../../../Scenes/Blender_2.77/Textures/Cylinder.023/Cylinder.023_t.png'... (256 x 256 x 3) 0.00792579s
(32103 vertices, 35201 unique vertices, 1 materials) 0.105672s
- loading '../../../Scenes/Blender_2.77/Cylinder_014.obj'... - loading '../../../Scenes/Blender_2.77/Textures/Cylinder.014/Cylinder.014_t.png'... (256 x 256 x 3) 0.0283096s
(32103 vertices, 35201 unique vertices, 1 materials) 0.118269s
- loading '../../../Scenes/Blender_2.77/Bolt_032.obj'... - loading '../../../Scenes/Blender_2.77/Textures/Bolt.032/Bolt.032_t.png'... (32 x 32 x 3) 0.00118763s
(256710 vertices, 313861 unique vertices, 1 materials) 0.682354s
- loading '../../../Scenes/Blender_2.77/Bolt.obj'... - loading '../../../Scenes/Blender_2.77/Textures/Bolt/Bolt_t.png'... (32 x 32 x 3) 0.00109111s
(7512 vertices, 8417 unique vertices, 1 materials) 0.0282699s
- loading '../../../Scenes/Blender_2.77/Cube.obj'... - loading '../../../Scenes/Blender_2.77/Textures/Cube/Cube_t.png'... (512 x 512 x 3) 0.0114692s
(689019 vertices, 254772 unique vertices, 1 materials) 3.27321s
- loading '../../../Scenes/Blender_2.77/icecream_001.obj'... (0 vertices, 0 unique vertices, 1 materials) 0.00239148s
- loading '../../../Scenes/Blender_2.77/BezierCurve_015.obj'... - loading '../../../Scenes/Blender_2.77/Textures/BezierCurve.015/BezierCurve.015_t.png'... (128 x 128 x 3) 0.0107599s
(3099 vertices, 1180 unique vertices, 1 materials) 0.0511009s
- loading '../../../Scenes/Blender_2.77/Cylinder_402.obj'... - loading '../../../Scenes/Blender_2.77/Textures/Cylinder.402/Cylinder.402_t.png'... (512 x 512 x 3) 0.00625475s
(13467 vertices, 5190 unique vertices, 1 materials) 0.0492177s
- loading '../../../Scenes/Blender_2.77/marsh_006.obj'... (0 vertices, 0 unique vertices, 1 materials) 0.014922s
- loading '../../../Scenes/Blender_2.77/Plane_030.obj'... - loading '../../../Scenes/Blender_2.77/Textures/Plane.030/Plane.030_t.png'... (64 x 64 x 3) 0.0322374s
(2982 vertices, 1212 unique vertices, 1 materials) 0.0707807s
- loading '../../../Scenes/Blender_2.77/Cylinder_429.obj'... - loading '../../../Scenes/Blender_2.77/Textures/Cylinder.429/Cylinder.429_t.png'... (64 x 64 x 3) 0.00214303s
(1014 vertices, 1154 unique vertices, 1 materials) 0.0213257s
- loading '../../../Scenes/Blender_2.77/Camera.obj'... (0 vertices, 0 unique vertices, 1 materials) 0.0406797s
- loading '../../../Scenes/Blender_2.77/twister_013.obj'... - loading '../../../Scenes/Blender_2.77/Textures/twister.013/twister.013_t.png'... (256 x 256 x 3) 0.00581419s
(10518 vertices, 4403 unique vertices, 1 materials) 0.0471668s
- loading '../../../Scenes/Blender_2.77/Cylinder_058.obj'... - loading '../../../Scenes/Blender_2.77/Textures/Cylinder.058/Cylinder.058_t.png'... (32 x 32 x 3) 0.0284727s
(144 vertices, 144 unique vertices, 1 materials) 0.105926s
- loading '../../../Scenes/Blender_2.77/icecream_009.obj'... - loading '../../../Scenes/Blender_2.77/Textures/icecream.009/icecream.009_t.png'... (2048 x 2048 x 3) 0.140563s
(1181187 vertices, 413383 unique vertices, 1 materials) 10.735s
- loading '../../../Scenes/Blender_2.77/Torus_001.obj'... - loading '../../../Scenes/Blender_2.77/Textures/Torus.001/Torus.001_t.png'... (256 x 256 x 3) 0.00149818s
(1728 vertices, 852 unique vertices, 1 materials) 0.010428s
- loading '../../../Scenes/Blender_2.77/Cylinder_025.obj'... - loading '../../../Scenes/Blender_2.77/Textures/Cylinder.025/Cylinder.025_t.png'... (256 x 256 x 3) 0.0226967s
(32103 vertices, 35201 unique vertices, 1 materials) 0.143116s
- loading '../../../Scenes/Blender_2.77/Torus_012.obj'... - loading '../../../Scenes/Blender_2.77/Textures/Torus.012/Torus.012_t.png'... (32 x 32 x 3) 0.0285307s
(864 vertices, 1152 unique vertices, 1 materials) 0.0421202s
- loading '../../../Scenes/Blender_2.77/BezierCurve_012.obj'... (1248 vertices, 221 unique vertices, 1 materials) 0.0230969s
- loading '../../../Scenes/Blender_2.77/Cube_1412.obj'... - loading '../../../Scenes/Blender_2.77/Textures/Cube.1412/Cube.1412_t.png'... (256 x 256 x 3) 0.0115321s
(4614 vertices, 1746 unique vertices, 1 materials) 0.0437251s
- loading '../../../Scenes/Blender_2.77/Cylinder_433.obj'... - loading '../../../Scenes/Blender_2.77/Textures/Cylinder.433/Cylinder.433_t.png'... (1024 x 1024 x 3) 0.0551772s
(4443 vertices, 2683 unique vertices, 1 materials) 0.113522s
- loading '../../../Scenes/Blender_2.77/marsh_001.obj'... (0 vertices, 0 unique vertices, 1 materials) 0.0124088s
- loading '../../../Scenes/Blender_2.77/Torus_017.obj'... - loading '../../../Scenes/Blender_2.77/Textures/Torus.017/Torus.017_t.png'... (16 x 16 x 3) 0.00143806s
(864 vertices, 432 unique vertices, 1 materials) 0.0562238s
- loading '../../../Scenes/Blender_2.77/Nut_002.obj'... - loading '../../../Scenes/Blender_2.77/Textures/Nut.002/Nut.002_t.png'... (32 x 32 x 3) 0.0149998s
(4071 vertices, 4401 unique vertices, 1 materials) 0.0413057s
- loading '../../../Scenes/Blender_2.77/Spiral_005.obj'... - loading '../../../Scenes/Blender_2.77/Textures/Spiral.005/Spiral.005_t.png'... (32 x 32 x 3) 0.0164151s
(726 vertices, 282 unique vertices, 1 materials) 0.0640747s
- loading '../../../Scenes/Blender_2.77/Cylinder_005.obj'... - loading '../../../Scenes/Blender_2.77/Textures/Cylinder.005/Cylinder.005_t.png'... (256 x 256 x 3) 0.0258382s
(14604 vertices, 5756 unique vertices, 1 materials) 0.0688931s
- loading '../../../Scenes/Blender_2.77/Bolt_030.obj'... - loading '../../../Scenes/Blender_2.77/Textures/Bolt.030/Bolt.030_t.png'... (32 x 32 x 3) 0.0163681s
(256230 vertices, 289184 unique vertices, 1 materials) 0.706075s
- loading '../../../Scenes/Blender_2.77/marsh_003.obj'... (0 vertices, 0 unique vertices, 1 materials) 0.037425s
- loading '../../../Scenes/Blender_2.77/Torus_011.obj'... - loading '../../../Scenes/Blender_2.77/Textures/Torus.011/Torus.011_t.png'... (64 x 64 x 3) 0.0336768s
(864 vertices, 432 unique vertices, 1 materials) 0.101468s
- loading '../../../Scenes/Blender_2.77/Cylinder_001.obj'... - loading '../../../Scenes/Blender_2.77/Textures/Cylinder.001/Cylinder.001_t.png'... (128 x 128 x 3) 0.0254604s
(48102 vertices, 18626 unique vertices, 1 materials) 0.138438s
- loading '../../../Scenes/Blender_2.77/Cylinder_052.obj'... - loading '../../../Scenes/Blender_2.77/Textures/Cylinder.052/Cylinder.052_t.png'... (128 x 128 x 3) 0.00674038s
(91443 vertices, 34222 unique vertices, 1 materials) 0.235112s
- loading '../../../Scenes/Blender_2.77/marsh_005.obj'... (0 vertices, 0 unique vertices, 1 materials) 0.0346531s
- loading '../../../Scenes/Blender_2.77/Bolt_020.obj'... - loading '../../../Scenes/Blender_2.77/Textures/Bolt.020/Bolt.020_t.png'... (16 x 16 x 3) 0.0489905s
(7512 vertices, 8467 unique vertices, 1 materials) 0.137527s
- loading '../../../Scenes/Blender_2.77/Plane_022.obj'... - loading '../../../Scenes/Blender_2.77/Textures/Plane.022/Plane.022_t.png'... (64 x 64 x 3) 0.00900314s
(2982 vertices, 1212 unique vertices, 1 materials) 0.0470328s
- loading '../../../Scenes/Blender_2.77/Cylinder_435.obj'... (0 vertices, 0 unique vertices, 1 materials) 0.0185371s
- loading '../../../Scenes/Blender_2.77/Cube_061.obj'... - loading '../../../Scenes/Blender_2.77/Textures/Cube.061/Cube.061_t.png'... (64 x 64 x 3) 0.00910038s
(1446 vertices, 590 unique vertices, 1 materials) 0.0201526s
- loading '../../../Scenes/Blender_2.77/Cylinder_013.obj'... - loading '../../../Scenes/Blender_2.77/Textures/Cylinder.013/Cylinder.013_t.png'... (256 x 256 x 3) 0.0243582s
(32103 vertices, 35201 unique vertices, 1 materials) 0.132125s
- loading '../../../Scenes/Blender_2.77/Torus_006.obj'... - loading '../../../Scenes/Blender_2.77/Textures/Torus.006/Torus.006_t.png'... (64 x 64 x 3) 0.011182s
(864 vertices, 432 unique vertices, 1 materials) 0.0722744s
- loading '../../../Scenes/Blender_2.77/Cube_046.obj'... - loading '../../../Scenes/Blender_2.77/Textures/Cube.046/Cube.046_t.png'... (128 x 128 x 3) 0.0281698s
(35256 vertices, 15878 unique vertices, 1 materials) 0.12759s
- loading '../../../Scenes/Blender_2.77/Cylinder_415.obj'... - loading '../../../Scenes/Blender_2.77/Textures/Cylinder.415/Cylinder.415_t.png'... (256 x 256 x 3) 0.00282228s
(13467 vertices, 5190 unique vertices, 1 materials) 0.0717417s
- loading '../../../Scenes/Blender_2.77/icecream_006.obj'... - loading '../../../Scenes/Blender_2.77/Textures/icecream.006/icecream.006_t.png'... (2048 x 2048 x 3) 0.132284s
(1181187 vertices, 413383 unique vertices, 1 materials) 10.7664s
- loading '../../../Scenes/Blender_2.77/Cylinder_418.obj'... - loading '../../../Scenes/Blender_2.77/Textures/Cylinder.418/Cylinder.418_t.png'... (1024 x 1024 x 3) 0.0779256s
(17619 vertices, 9559 unique vertices, 1 materials) 0.124975s
- loading '../../../Scenes/Blender_2.77/Cylinder_003.obj'... - loading '../../../Scenes/Blender_2.77/Textures/Cylinder.003/Cylinder.003_t.png'... (128 x 128 x 3) 0.00280134s
(48102 vertices, 18626 unique vertices, 1 materials) 0.10933s
- loading '../../../Scenes/Blender_2.77/Spiral_002.obj'... (24576 vertices, 4352 unique vertices, 1 materials) 0.0833335s
- loading '../../../Scenes/Blender_2.77/marsh_009.obj'... (0 vertices, 0 unique vertices, 1 materials) 0.0517318s
- loading '../../../Scenes/Blender_2.77/Bolt_014.obj'... - loading '../../../Scenes/Blender_2.77/Textures/Bolt.014/Bolt.014_t.png'... (32 x 32 x 3) 0.00216815s
(7512 vertices, 8481 unique vertices, 1 materials) 0.0158979s
- loading '../../../Scenes/Blender_2.77/Nut.obj'... - loading '../../../Scenes/Blender_2.77/Textures/Nut/Nut_t.png'... (32 x 32 x 3) 0.0137173s
(4071 vertices, 4405 unique vertices, 1 materials) 0.0645127s
- loading '../../../Scenes/Blender_2.77/Cube_1433.obj'... - loading '../../../Scenes/Blender_2.77/Textures/Cube.1433/Cube.1433_t.png'... (2048 x 2048 x 3) 0.0387349s
(18456 vertices, 6984 unique vertices, 1 materials) 0.0744352s
- loading '../../../Scenes/Blender_2.77/Cube_044.obj'... - loading '../../../Scenes/Blender_2.77/Textures/Cube.044/Cube.044_t.png'... (8 x 8 x 3) 0.00132168s
(678 vertices, 290 unique vertices, 1 materials) 0.00386894s
- loading '../../../Scenes/Blender_2.77/Spiral_004.obj'... (32448 vertices, 5746 unique vertices, 1 materials) 0.0801701s
- loading '../../../Scenes/Blender_2.77/Cylinder_026.obj'... - loading '../../../Scenes/Blender_2.77/Textures/Cylinder.026/Cylinder.026_t.png'... (256 x 256 x 3) 0.0169061s
(32550 vertices, 12866 unique vertices, 1 materials) 0.0935763s
- loading '../../../Scenes/Blender_2.77/Cylinder_019.obj'... - loading '../../../Scenes/Blender_2.77/Textures/Cylinder.019/Cylinder.019_t.png'... (128 x 128 x 3) 0.0402552s
(711 vertices, 675 unique vertices, 1 materials) 0.0533254s
- loading '../../../Scenes/Blender_2.77/Torus_013.obj'... - loading '../../../Scenes/Blender_2.77/Textures/Torus.013/Torus.013_t.png'... (16 x 16 x 3) 0.00129389s
(864 vertices, 432 unique vertices, 1 materials) 0.0250302s
- loading '../../../Scenes/Blender_2.77/Cube_1417.obj'... - loading '../../../Scenes/Blender_2.77/Textures/Cube.1417/Cube.1417_t.png'... (32 x 32 x 3) 0.0246645s
(18750 vertices, 19852 unique vertices, 1 materials) 0.0723139s
- loading '../../../Scenes/Blender_2.77/choc.obj'... - loading '../../../Scenes/Blender_2.77/Textures/choc/choc_t.png'... (256 x 256 x 3) 0.00217822s
(1158 vertices, 483 unique vertices, 1 materials) 0.0389292s
done loading
RTV: Creating device buffer Vertices of size 407714364
LVP: vkBuffer size 407714364 created at 0x5634bc391ba8
RTV: New vkBuffer created at 0x5634bc391ba8
LLVM: llvmpipe_resource_bind_backing: pipe_screen 0x5634bb5a03c0; pipe_resource 0x5634d1540640; llvmpipe_resource 0x5634d1540640; pipe_memory_allocation 0x1477b5105000;
LVP: Binding lvp_buffer 0x5634bb77c010: buffer->bo: 0x5634d1540640; buffer->pmem: 0x1477b5105000; memory-offset: 0;


        *** GPGPU-Sim Simulator Version 4.0.0 - Vulkan-Sim version 2.0.0  [build gpgpu-sim_git-commit-dc742faa6e5fcfaf415fe51eab71dcf9345388fd_modified_1.0] ***


GPGPU-Sim PTX: simulation mode 31972122 (can change with PTX_SIM_MODE_FUNC environment variable:
               1=functional simulation only, 0=detailed performance simulator)
GPGPU-Sim PTX: overriding embedded ptx with ptx file (PTX_SIM_USE_PTX_FILE is set)
GPGPU-Sim: Configuration options:

-save_embedded_ptx                      0 # saves ptx files embedded in binary as <n>.ptx
-keep                                   0 # keep intermediate files created by GPGPU-Sim when interfacing with external programs
-gpgpu_ptx_save_converted_ptxplus                    0 # Saved converted ptxplus to a file
-gpgpu_occupancy_sm_number                   75 # The SM number to pass to ptxas when getting register usage for computing GPU occupancy. This parameter is required in the config.
-ptx_opcode_latency_int      4,13,4,5,145,32 # Opcode latencies for integers <ADD,MAX,MUL,MAD,DIV,SHFL>Default 1,1,19,25,145,32
-ptx_opcode_latency_fp          4,13,4,5,39 # Opcode latencies for single precision floating points <ADD,MAX,MUL,MAD,DIV>Default 1,1,1,1,30
-ptx_opcode_latency_dp         8,19,8,8,330 # Opcode latencies for double precision floating points <ADD,MAX,MUL,MAD,DIV>Default 8,8,8,8,335
-ptx_opcode_latency_sfu                  100 # Opcode latencies for SFU instructionsDefault 8
-ptx_opcode_latency_tesnor                   64 # Opcode latencies for Tensor instructionsDefault 64
-ptx_opcode_initiation_int          2,2,2,2,8,4 # Opcode initiation intervals for integers <ADD,MAX,MUL,MAD,DIV,SHFL>Default 1,1,4,4,32,4
-ptx_opcode_initiation_fp            2,2,2,2,4 # Opcode initiation intervals for single precision floating points <ADD,MAX,MUL,MAD,DIV>Default 1,1,1,1,5
-ptx_opcode_initiation_dp          4,4,4,4,130 # Opcode initiation intervals for double precision floating points <ADD,MAX,MUL,MAD,DIV>Default 8,8,8,8,130
-ptx_opcode_initiation_sfu                    8 # Opcode initiation intervals for sfu instructionsDefault 8
-ptx_opcode_initiation_tensor                   64 # Opcode initiation intervals for tensor instructionsDefault 64
-cdp_latency         7200,8000,100,12000,1600 # CDP API latency <cudaStreamCreateWithFlags, cudaGetParameterBufferV2_init_perWarp, cudaGetParameterBufferV2_perKernel, cudaLaunchDeviceV2_init_perWarp, cudaLaunchDevicV2_perKernel>Default 7200,8000,100,12000,1600
-network_mode                           2 # Interconnection network mode
-inter_config_file                   mesh # Interconnection network config file
-icnt_in_buffer_limit                  512 # in_buffer_limit
-icnt_out_buffer_limit                  512 # out_buffer_limit
-icnt_subnets                           2 # subnets
-icnt_arbiter_algo                      1 # arbiter_algo
-icnt_verbose                           0 # inct_verbose
-icnt_grant_cycles                      1 # grant_cycles
-gpgpu_ptx_use_cuobjdump                    1 # Use cuobjdump to extract ptx and sass from binaries
-gpgpu_experimental_lib_support                    0 # Try to extract code from cuda libraries [Broken because of unknown cudaGetExportTable]
-checkpoint_option                      0 #  checkpointing flag (0 = no checkpoint)
-checkpoint_kernel                      1 #  checkpointing during execution of which kernel (1- 1st kernel)
-checkpoint_CTA                         0 #  checkpointing after # of CTA (< less than total CTA)
-resume_option                          0 #  resume flag (0 = no resume)
-resume_kernel                          0 #  Resume from which kernel (1= 1st kernel)
-resume_CTA                             0 #  resume from which CTA 
-checkpoint_CTA_t                       0 #  resume from which CTA 
-checkpoint_insn_Y                      0 #  resume from which CTA 
-gpgpu_ptx_convert_to_ptxplus                    0 # Convert SASS (native ISA) to ptxplus and run ptxplus
-gpgpu_ptx_force_max_capability                   75 # Force maximum compute capability
-gpgpu_ptx_inst_debug_to_file                    0 # Dump executed instructions' debug information to file
-gpgpu_ptx_inst_debug_file       inst_debug.txt # Executed instructions' debug output file
-gpgpu_ptx_inst_debug_thread_uid                    1 # Thread UID for executed instructions' debug output
-gpgpu_simd_model                       1 # 1 = post-dominator
-gpgpu_simd_rec_time_out                   -1 # -1 = no reconvergence time out
-gpgpu_simd_rec_size                    6 # number of physical entries in the reconvergence table
-gpgpu_simd_st_size                     6 # number of physical entries in the splits table
-gpgpu_simd_rec_replacement                    0 # reconvergence table replacement policy
-gpgpu_simd_st_replacement                    0 # splits table replacement policy
-gpgpu_shader_core_pipeline              1024:32 # shader core pipeline config, i.e., {<nthread>:<warpsize>}
-gpgpu_tex_cache:l1  N:4:128:256,L:R:m:N:L,T:512:8,128:2 # per-shader L1 texture cache  (READ-ONLY) config  {<nsets>:<bsize>:<assoc>,<rep>:<wr>:<alloc>:<wr_alloc>,<mshr>:<N>:<merge>,<mq>:<rf>}
-gpgpu_const_cache:l1 N:128:64:8,L:R:f:N:L,S:2:64,4 # per-shader L1 constant memory cache  (READ-ONLY) config  {<nsets>:<bsize>:<assoc>,<rep>:<wr>:<alloc>:<wr_alloc>,<mshr>:<N>:<merge>,<mq>} 
-gpgpu_rt_cache:l1   S:32:128:16,L:R:m:L:P,A:256:256,32:0,32 # per-shader L1 constant memory cache  (READ-ONLY) config  {<nsets>:<bsize>:<assoc>,<rep>:<wr>:<alloc>:<wr_alloc>,<mshr>:<N>:<merge>,<mq>} 
-gpgpu_rt_use_l1                        1 # use existing L1 cache instead of dedicated L0 cache 
-gpgpu_rt_perfect_mem                    0 # assume 0 latency BVH accesses 
-gpgpu_rt_coherence_engine                    0 # enable coherency engine (ray sorting) 
-gpgpu_rt_coherence_engine_config 100,10,16,g,0,3,2,0.25 # max cycles, hash 
-gpgpu_rt_disable_rt_cache                    0 # bypass RT cache and connect RT unit directly to interconnect 
-gpgpu_rt_max_warps                     4 # max number of warps concurrently in one rt core 
-gpgpu_rt_max_mshr                     64 # max number of MSHR entries in RT unit 
-gpgpu_rt_coalesce_warps                    0 # try to coalesce memory requests between warps 
-gpgpu_rt_intersection_latency        4,8,8,4,8,8,8 # latency of pipelined intersection tests (7 types)
-gpgpu_rt_intersection_table_type                    0 # type of intersection table
-gpgpu_cache:il1     N:64:128:16,L:R:f:N:L,S:2:48,4 # shader L1 instruction cache config  {<nsets>:<bsize>:<assoc>,<rep>:<wr>:<alloc>:<wr_alloc>,<mshr>:<N>:<merge>,<mq>} 
-gpgpu_cache:dl1     S:1:128:256,L:L:s:N:L,A:256:8,16:0,32 # per-shader L1 data cache config  {<nsets>:<bsize>:<assoc>,<rep>:<wr>:<alloc>:<wr_alloc>,<mshr>:<N>:<merge>,<mq> | none}
-gpgpu_l1_banks                         4 # The number of L1 cache banks
-gpgpu_l1_banks_byte_interleaving                   32 # l1 banks byte interleaving granularity
-gpgpu_l1_banks_hashing_function                    0 # l1 banks hashing function
-gpgpu_l1_latency                      20 # L1 Hit Latency
-gpgpu_smem_latency                    20 # smem Latency
-gpgpu_cache:dl1PrefL1                 none # per-shader L1 data cache config  {<nsets>:<bsize>:<assoc>,<rep>:<wr>:<alloc>:<wr_alloc>,<mshr>:<N>:<merge>,<mq> | none}
-gpgpu_cache:dl1PrefShared                 none # per-shader L1 data cache config  {<nsets>:<bsize>:<assoc>,<rep>:<wr>:<alloc>:<wr_alloc>,<mshr>:<N>:<merge>,<mq> | none}
-gpgpu_gmem_skip_L1D                    0 # global memory access skip L1D cache (implements -Xptxas -dlcm=cg, default=no skip)
-gpgpu_perfect_mem                      0 # enable perfect memory mode (no cache miss)
-n_regfile_gating_group                    4 # group of lanes that should be read/written together)
-gpgpu_clock_gated_reg_file                    0 # enable clock gated reg file for power calculations
-gpgpu_clock_gated_lanes                    0 # enable clock gated lanes for power calculations
-gpgpu_shader_registers                32768 # Number of registers per shader core. Limits number of concurrent CTAs. (default 8192)
-gpgpu_registers_per_block                32768 # Maximum number of registers per CTA. (default 8192)
-gpgpu_ignore_resources_limitation                    0 # gpgpu_ignore_resources_limitation (default 0)
-gpgpu_shader_cta                      16 # Maximum number of concurrent CTAs in shader (default 8)
-gpgpu_num_cta_barriers                   16 # Maximum number of named barriers per CTA (default 16)
-gpgpu_n_clusters                       8 # number of processing clusters
-gpgpu_n_cores_per_cluster                    1 # number of simd cores per cluster
-gpgpu_n_cluster_ejection_buffer_size                   32 # number of packets in ejection buffer
-gpgpu_n_ldst_response_buffer_size                    2 # number of response packets in ld/st unit ejection buffer
-gpgpu_shmem_per_block                65536 # Size of shared memory per thread block or CTA (default 48kB)
-gpgpu_shmem_size                   65536 # Size of shared memory per shader core (default 16kB)
-gpgpu_adaptive_cache_config                    0 # adaptive_cache_config
-gpgpu_shmem_sizeDefault                65536 # Size of shared memory per shader core (default 16kB)
-gpgpu_shmem_size_PrefL1                16384 # Size of shared memory per shader core (default 16kB)
-gpgpu_shmem_size_PrefShared                16384 # Size of shared memory per shader core (default 16kB)
-gpgpu_shmem_num_banks                   32 # Number of banks in the shared memory in each shader core (default 16)
-gpgpu_shmem_limited_broadcast                    0 # Limit shared memory to do one broadcast per cycle (default on)
-gpgpu_shmem_warp_parts                    1 # Number of portions a warp is divided into for shared memory bank conflict check 
-gpgpu_mem_unit_ports                    1 # The number of memory transactions allowed per core cycle
-gpgpu_shmem_warp_parts                    1 # Number of portions a warp is divided into for shared memory bank conflict check 
-gpgpu_warpdistro_shader                   -1 # Specify which shader core to collect the warp size distribution from
-gpgpu_warp_issue_shader                    0 # Specify which shader core to collect the warp issue distribution from
-gpgpu_local_mem_map                    1 # Mapping from local memory space address to simulated GPU physical address space (default = enabled)
-gpgpu_num_reg_banks                   16 # Number of register banks (default = 8)
-gpgpu_reg_bank_use_warp_id                    0 # Use warp ID in mapping registers to banks (default = off)
-gpgpu_sub_core_model                    1 # Sub Core Volta/Pascal model (default = off)
-gpgpu_enable_specialized_operand_collector                    0 # enable_specialized_operand_collector
-gpgpu_operand_collector_num_units_sp                    4 # number of collector units (default = 4)
-gpgpu_operand_collector_num_units_dp                    0 # number of collector units (default = 0)
-gpgpu_operand_collector_num_units_sfu                    4 # number of collector units (default = 4)
-gpgpu_operand_collector_num_units_int                    0 # number of collector units (default = 0)
-gpgpu_operand_collector_num_units_tensor_core                    4 # number of collector units (default = 4)
-gpgpu_operand_collector_num_units_mem                    2 # number of collector units (default = 2)
-gpgpu_operand_collector_num_units_gen                    8 # number of collector units (default = 0)
-gpgpu_operand_collector_num_in_ports_sp                    1 # number of collector unit in ports (default = 1)
-gpgpu_operand_collector_num_in_ports_dp                    0 # number of collector unit in ports (default = 0)
-gpgpu_operand_collector_num_in_ports_sfu                    1 # number of collector unit in ports (default = 1)
-gpgpu_operand_collector_num_in_ports_int                    0 # number of collector unit in ports (default = 0)
-gpgpu_operand_collector_num_in_ports_tensor_core                    1 # number of collector unit in ports (default = 1)
-gpgpu_operand_collector_num_in_ports_mem                    1 # number of collector unit in ports (default = 1)
-gpgpu_operand_collector_num_in_ports_gen                    8 # number of collector unit in ports (default = 0)
-gpgpu_operand_collector_num_out_ports_sp                    1 # number of collector unit in ports (default = 1)
[...]
dram[3]:    125850    121498    129478    125990    122364    124874    114312    114526    124572    119362    120276    119374    133584    129232    135702    129198 
total dram reads = 7954208
bank skew: 136232/112588 = 1.21
chip skew: 1991978/1983808 = 1.00
number of total write accesses:
dram[0]:     22314       496     22716       512     21874       496     21242       496     19580       512     20656       512     23236       512     21920       456 
dram[1]:     22400       480     21800       472     20798       512     21408       512     19850       512     21064       512     24150       512     22454       512 
dram[2]:     22918       496     22434       512     20962       512     20674       512     20084       512     21128       496     24012       512     22862       496 
dram[3]:     22004       424     22330       448     20226       512     20978       512     18854       512     20988       512     22772       512     22790       472 
total dram writes = 709446
bank skew: 24150/424 = 56.96
chip skew: 179122/174846 = 1.02
average mf latency per bank:
dram[0]:        262       180       283       201       256       187       284       181       250       176       253       179       265       186       256       177
dram[1]:        259       181       281       195       256       180       274       184       256       179       254       176       262       179       255       174
dram[2]:        284       198       288       202       256       199       281       191       255       185       262       181       269       184       251       173
dram[3]:        263       182       291       201       255       188       277       192       243       176       260       173       255       182       259       175
maximum mf latency per bank:
dram[0]:       4490      1465      4096      3623      4117      1395      4087      1502      4462      1339      4141      1538      4125      1437      4174      1322
dram[1]:       4590      1560      4160      1636      4180      1497      4158      1353      4545      1492      4203      1647      4187      1634      4238      1612
dram[2]:       4583      1546      4163      1619      4180      1464      4160      1544      4556      1604      4203      1455      4196      1550      4236      1550
dram[3]:       4495      1529      4125      1569      4138      1742      4099      1747      4519      1702      4216      1551      4146      1551      4161      1846
DRAM[0]: 16 bks, busW=2 BL=8 CL=20, tRRD=10 tCCD=4, tRCD=20 tRAS=50 tRP=20 tRC=62
n_cmd=14955175 n_nop=11573647 n_act=664403 n_pre=664387 n_ref_event=0 n_req=1063273 n_rd=1988230 n_rd_L2_A=0 n_write=0 n_wr_bk=177530 bw_util=0.5793
n_activity=13871637 dram_eff=0.6245
bk0: 122944a 10682234i bk1: 120792a 12229229i bk2: 125828a 10666612i bk3: 125724a 12140971i bk4: 125000a 10682994i bk5: 127194a 12112151i bk6: 117198a 11015557i bk7: 119252a 12310468i bk8: 126028a 10807705i bk9: 126304a 12104981i bk10: 115510a 10948363i bk11: 116626a 12348522i bk12: 133824a 10383644i bk13: 133194a 11936491i bk14: 126660a 10615663i bk15: 126152a 12094114i 

------------------------------------------------------------------------

Row_Buffer_Locality = 0.375134
Row_Buffer_Locality_read = 0.394188
Row_Buffer_Locality_write = 0.101246
Bank_Level_Parallism = 4.282624
Bank_Level_Parallism_Col = 3.027265
Bank_Level_Parallism_Ready = 1.981836
write_to_read_ratio_blp_rw_average = 0.193814
GrpLevelPara = 2.125526 

BW Util details:
bwutil = 0.579267 
total_CMD = 14955175 
util_bw = 8663040 
Wasted_Col = 3636013 
Wasted_Row = 1068532 
Idle = 1587590 

BW Util Bottlenecks: 
RCDc_limit = 4115694 
RCDWRc_limit = 199083 
WTRc_limit = 1424259 
RTWc_limit = 1354902 
CCDLc_limit = 0 
rwq = 0 
CCDLc_limit_alone = 0 
WTRc_limit_alone = 1424259 
RTWc_limit_alone = 1354902 

Commands details: 
total_CMD = 14955175 
n_nop = 11573647 
Read = 1988230 
Write = 0 
L2_Alloc = 0 
L2_WB = 177530 
n_act = 664403 
n_pre = 664387 
n_ref = 0 
n_req = 1063273 
total_req = 2165760 

Dual Bus Interface Util: 
issued_total_row = 1328790 
issued_total_col = 2165760 
Row_Bus_Util =  0.088852 
CoL_Bus_Util = 0.144817 
Either_Row_CoL_Bus_Util = 0.226111 
Issued_on_Two_Bus_Simul_Util = 0.007557 
issued_two_Eff = 0.033423 
queue_avg = 4.676856 


dram_util_bins: 0 0 0 0 0 0 0 0 0 0
dram_eff_bins: 0 0 0 0 0 0 0 0 0 0
mrqq: max=64 avg=4.67686
DRAM[1]: 16 bks, busW=2 BL=8 CL=20, tRRD=10 tCCD=4, tRCD=20 tRAS=50 tRP=20 tRC=62
n_cmd=14955175 n_nop=11573602 n_act=666417 n_pre=666401 n_ref_event=24575802873433 n_req=1061061 n_rd=1983808 n_rd_L2_A=0 n_write=0 n_wr_bk=177948 bw_util=0.5782
n_activity=13870550 dram_eff=0.6234
bk0: 125564a 10648405i bk1: 120874a 12211023i bk2: 133464a 10610500i bk3: 123874a 12238781i bk4: 122248a 10830406i bk5: 127520a 12097436i bk6: 115234a 11012984i bk7: 113154a 12454436i bk8: 124898a 10835395i bk9: 124800a 12175154i bk10: 117600a 10900896i bk11: 114830a 12412127i bk12: 136232a 10362807i bk13: 128090a 12031814i bk14: 126302a 10599943i bk15: 129124a 12005415i 

------------------------------------------------------------------------

Row_Buffer_Locality = 0.371933
Row_Buffer_Locality_read = 0.391290
Row_Buffer_Locality_write = 0.094307
Bank_Level_Parallism = 4.254261
Bank_Level_Parallism_Col = 101588.242188
Bank_Level_Parallism_Ready = 1.953392
write_to_read_ratio_blp_rw_average = 0.000000
GrpLevelPara = 0.000001 

BW Util details:
bwutil = 0.578196 
total_CMD = 14955175 
util_bw = 8647024 
Wasted_Col = 3657913 
Wasted_Row = 1068201 
Idle = 1582037 

BW Util Bottlenecks: 
RCDc_limit = 4147765 
RCDWRc_limit = 202000 
WTRc_limit = 1435899 
RTWc_limit = 1366203 
CCDLc_limit = 0 
rwq = 0 
CCDLc_limit_alone = 0 
WTRc_limit_alone = 1435899 
RTWc_limit_alone = 1366203 

Commands details: 
total_CMD = 14955175 
n_nop = 11573602 
Read = 1983808 
Write = 0 
L2_Alloc = 0 
L2_WB = 177948 
n_act = 666417 
n_pre = 666401 
n_ref = 24575802873433 
n_req = 1061061 
total_req = 2161756 

Dual Bus Interface Util: 
issued_total_row = 1332818 
issued_total_col = 2161756 
Row_Bus_Util =  0.089121 
CoL_Bus_Util = 0.144549 
Either_Row_CoL_Bus_Util = 0.226114 
Issued_on_Two_Bus_Simul_Util = 0.007556 
issued_two_Eff = 0.033417 
queue_avg = 4.439191 


dram_util_bins: 0 0 0 0 0 0 0 0 0 0
dram_eff_bins: 0 0 0 0 0 0 0 0 0 0
mrqq: max=64 avg=4.43919
DRAM[2]: 16 bks, busW=2 BL=8 CL=20, tRRD=10 tCCD=4, tRCD=20 tRAS=50 tRP=20 tRC=62
n_cmd=14955175 n_nop=11556979 n_act=670559 n_pre=670543 n_ref_event=1679332214640 n_req=1065312 n_rd=1991978 n_rd_L2_A=0 n_write=0 n_wr_bk=179122 bw_util=0.5807
n_activity=13852733 dram_eff=0.6269
bk0: 126156a 10596645i bk1: 126768a 12099966i bk2: 124758a 10702277i bk3: 131048a 11975813i bk4: 125878a 10693709i bk5: 124528a 12182263i bk6: 112596a 11118328i bk7: 112588a 12466554i bk8: 126472a 10817478i bk9: 123516a 12213691i bk10: 120614a 10860930i bk11: 112866a 12458227i bk12: 128614a 10460293i bk13: 128198a 12013208i bk14: 133542a 10419714i bk15: 133836a 11908614i 

------------------------------------------------------------------------

Row_Buffer_Locality = 0.370552
Row_Buffer_Locality_read = 0.389526
Row_Buffer_Locality_write = 0.097933
Bank_Level_Parallism = 4.291037
Bank_Level_Parallism_Col = 0.077212
Bank_Level_Parallism_Ready = 1.952035
write_to_read_ratio_blp_rw_average = 0.000000
GrpLevelPara = 0.000001 

BW Util details:
bwutil = 0.580695 
total_CMD = 14955175 
util_bw = 8684400 
Wasted_Col = 3628198 
Wasted_Row = 1048451 
Idle = 1594126 

BW Util Bottlenecks: 
RCDc_limit = 4128156 
RCDWRc_limit = 198978 
WTRc_limit = 1446379 
RTWc_limit = 1373340 
CCDLc_limit = 0 
rwq = 0 
CCDLc_limit_alone = 0 
WTRc_limit_alone = 1446379 
RTWc_limit_alone = 1373340 

Commands details: 
total_CMD = 14955175 
n_nop = 11556979 
Read = 1991978 
Write = 0 
L2_Alloc = 0 
L2_WB = 179122 
n_act = 670559 
n_pre = 670543 
n_ref = 1679332214640 
n_req = 1065312 
total_req = 2171100 

Dual Bus Interface Util: 
issued_total_row = 1341102 
issued_total_col = 2171100 
Row_Bus_Util =  0.089675 
CoL_Bus_Util = 0.145174 
Either_Row_CoL_Bus_Util = 0.227225 
Issued_on_Two_Bus_Simul_Util = 0.007623 
issued_two_Eff = 0.033549 
queue_avg = 4.472678 


dram_util_bins: 0 0 0 0 0 0 0 0 0 0
dram_eff_bins: 0 0 0 0 0 0 0 0 0 0
mrqq: max=64 avg=4.47268
DRAM[3]: 16 bks, busW=2 BL=8 CL=20, tRRD=10 tCCD=4, tRCD=20 tRAS=50 tRP=20 tRC=62
n_cmd=14955175 n_nop=11563016 n_act=670303 n_pre=670287 n_ref_event=4565847950914965345 n_req=1063413 n_rd=1990192 n_rd_L2_A=0 n_write=0 n_wr_bk=174846 bw_util=0.5791
n_activity=13846978 dram_eff=0.6254
bk0: 125850a 10664054i bk1: 121498a 12225978i bk2: 129478a 10591184i bk3: 125990a 12119216i bk4: 122364a 10862750i bk5: 124874a 12144440i bk6: 114312a 11088642i bk7: 114526a 12439755i bk8: 124572a 10909141i bk9: 119362a 12300149i bk10: 120276a 10871609i bk11: 119374a 12290085i bk12: 133584a 10391296i bk13: 129232a 12015978i bk14: 135702a 10392058i bk15: 129198a 11964744i 

------------------------------------------------------------------------

Row_Buffer_Locality = 0.369668
Row_Buffer_Locality_read = 0.388487
Row_Buffer_Locality_write = 0.095555
Bank_Level_Parallism = 4.271937
Bank_Level_Parallism_Col = 2.989829
Bank_Level_Parallism_Ready = 1.950500
write_to_read_ratio_blp_rw_average = 0.190503
GrpLevelPara = 2.122138 

BW Util details:
bwutil = 0.579074 
total_CMD = 14955175 
util_bw = 8660152 
Wasted_Col = 3633034 
Wasted_Row = 1060821 
Idle = 1601168 

BW Util Bottlenecks: 
RCDc_limit = 4141772 
RCDWRc_limit = 197738 
WTRc_limit = 1428703 
RTWc_limit = 1348723 
CCDLc_limit = 0 
rwq = 0 
CCDLc_limit_alone = 0 
WTRc_limit_alone = 1428703 
RTWc_limit_alone = 1348723 

Commands details: 
total_CMD = 14955175 
n_nop = 11563016 
Read = 1990192 
Write = 0 
L2_Alloc = 0 
L2_WB = 174846 
n_act = 670303 
n_pre = 670287 
n_ref = 4565847950914965345 
n_req = 1063413 
total_req = 2165038 

Dual Bus Interface Util: 
issued_total_row = 1340590 
issued_total_col = 2165038 
Row_Bus_Util =  0.089641 
CoL_Bus_Util = 0.144768 
Either_Row_CoL_Bus_Util = 0.226822 
Issued_on_Two_Bus_Simul_Util = 0.007587 
issued_two_Eff = 0.033450 
queue_avg = 4.459727 


dram_util_bins: 0 0 0 0 0 0 0 0 0 0
dram_eff_bins: 0 0 0 0 0 0 0 0 0 0
mrqq: max=64 avg=4.45973

========= L2 cache stats =========
L2_cache_bank[0]: Access = 1806422, Miss = 1431599, Miss_rate = 0.793, Pending_hits = 2948, Reservation_fails = 2442
L2_cache_bank[1]: Access = 1800198, Miss = 1432174, Miss_rate = 0.796, Pending_hits = 2971, Reservation_fails = 1521
L2_cache_bank[2]: Access = 1885713, Miss = 1443527, Miss_rate = 0.766, Pending_hits = 3529, Reservation_fails = 2315
L2_cache_bank[3]: Access = 1797980, Miss = 1422775, Miss_rate = 0.791, Pending_hits = 3365, Reservation_fails = 3133
L2_total_cache_accesses = 7290313
L2_total_cache_misses = 5730075
L2_total_cache_miss_rate = 0.7860
L2_total_cache_pending_hits = 12813
L2_total_cache_reservation_fails = 9411
L2_total_cache_breakdown:
	L2_cache_stats_breakdown[GLOBAL_ACC_R][HIT] = 1232251
	L2_cache_stats_breakdown[GLOBAL_ACC_R][HIT_RESERVED] = 12561
	L2_cache_stats_breakdown[GLOBAL_ACC_R][MISS] = 1638633
	L2_cache_stats_breakdown[GLOBAL_ACC_R][RESERVATION_FAIL] = 9131
	L2_cache_stats_breakdown[GLOBAL_ACC_R][SECTOR_MISS] = 2244631
	L2_cache_stats_breakdown[LOCAL_ACC_R][HIT] = 0
	L2_cache_stats_breakdown[LOCAL_ACC_R][HIT_RESERVED] = 0
	L2_cache_stats_breakdown[LOCAL_ACC_R][MISS] = 0
	L2_cache_stats_breakdown[LOCAL_ACC_R][RESERVATION_FAIL] = 0
	L2_cache_stats_breakdown[LOCAL_ACC_R][SECTOR_MISS] = 0
	L2_cache_stats_breakdown[CONST_ACC_R][HIT] = 0
	L2_cache_stats_breakdown[CONST_ACC_R][HIT_RESERVED] = 0
	L2_cache_stats_breakdown[CONST_ACC_R][MISS] = 0
	L2_cache_stats_breakdown[CONST_ACC_R][RESERVATION_FAIL] = 0
	L2_cache_stats_breakdown[CONST_ACC_R][SECTOR_MISS] = 0
	L2_cache_stats_breakdown[TEXTURE_ACC_R][HIT] = 596
	L2_cache_stats_breakdown[TEXTURE_ACC_R][HIT_RESERVED] = 136
	L2_cache_stats_breakdown[TEXTURE_ACC_R][MISS] = 23460
	L2_cache_stats_breakdown[TEXTURE_ACC_R][RESERVATION_FAIL] = 280
	L2_cache_stats_breakdown[TEXTURE_ACC_R][SECTOR_MISS] = 70380
	L2_cache_stats_breakdown[GLOBAL_ACC_W][HIT] = 314578
	L2_cache_stats_breakdown[GLOBAL_ACC_W][HIT_RESERVED] = 116
	L2_cache_stats_breakdown[GLOBAL_ACC_W][MISS] = 204237
	L2_cache_stats_breakdown[GLOBAL_ACC_W][RESERVATION_FAIL] = 0
	L2_cache_stats_breakdown[GLOBAL_ACC_W][SECTOR_MISS] = 1548734
	L2_cache_stats_breakdown[BRU_ST_SPILL][HIT] = 0
	L2_cache_stats_breakdown[BRU_ST_SPILL][HIT_RESERVED] = 0
	L2_cache_stats_breakdown[BRU_ST_SPILL][MISS] = 0
	L2_cache_stats_breakdown[BRU_ST_SPILL][RESERVATION_FAIL] = 0
	L2_cache_stats_breakdown[BRU_ST_SPILL][SECTOR_MISS] = 0
	L2_cache_stats_breakdown[BRU_ST_FILL][HIT] = 0
	L2_cache_stats_breakdown[BRU_ST_FILL][HIT_RESERVED] = 0
	L2_cache_stats_breakdown[BRU_ST_FILL][MISS] = 0
	L2_cache_stats_breakdown[BRU_ST_FILL][RESERVATION_FAIL] = 0
	L2_cache_stats_breakdown[BRU_ST_FILL][SECTOR_MISS] = 0
	L2_cache_stats_breakdown[BRU_RT_SPILL][HIT] = 0
	L2_cache_stats_breakdown[BRU_RT_SPILL][HIT_RESERVED] = 0
	L2_cache_stats_breakdown[BRU_RT_SPILL][MISS] = 0
	L2_cache_stats_breakdown[BRU_RT_SPILL][RESERVATION_FAIL] = 0
	L2_cache_stats_breakdown[BRU_RT_SPILL][SECTOR_MISS] = 0
	L2_cache_stats_breakdown[BRU_RT_FILL][HIT] = 0
	L2_cache_stats_breakdown[BRU_RT_FILL][HIT_RESERVED] = 0
	L2_cache_stats_breakdown[BRU_RT_FILL][MISS] = 0
	L2_cache_stats_breakdown[BRU_RT_FILL][RESERVATION_FAIL] = 0
	L2_cache_stats_breakdown[BRU_RT_FILL][SECTOR_MISS] = 0
	L2_cache_stats_breakdown[LOCAL_ACC_W][HIT] = 0
	L2_cache_stats_breakdown[LOCAL_ACC_W][HIT_RESERVED] = 0
	L2_cache_stats_breakdown[LOCAL_ACC_W][MISS] = 0
	L2_cache_stats_breakdown[LOCAL_ACC_W][RESERVATION_FAIL] = 0
	L2_cache_stats_breakdown[LOCAL_ACC_W][SECTOR_MISS] = 0
	L2_cache_stats_breakdown[L1_WRBK_ACC][HIT] = 0
	L2_cache_stats_breakdown[L1_WRBK_ACC][HIT_RESERVED] = 0
	L2_cache_stats_breakdown[L1_WRBK_ACC][MISS] = 0
	L2_cache_stats_breakdown[L1_WRBK_ACC][RESERVATION_FAIL] = 0
	L2_cache_stats_breakdown[L1_WRBK_ACC][SECTOR_MISS] = 0
	L2_cache_stats_breakdown[L2_WRBK_ACC][HIT] = 0
	L2_cache_stats_breakdown[L2_WRBK_ACC][HIT_RESERVED] = 0
	L2_cache_stats_breakdown[L2_WRBK_ACC][MISS] = 0
	L2_cache_stats_breakdown[L2_WRBK_ACC][RESERVATION_FAIL] = 0
	L2_cache_stats_breakdown[L2_WRBK_ACC][SECTOR_MISS] = 0
	L2_cache_stats_breakdown[INST_ACC_R][HIT] = 0
	L2_cache_stats_breakdown[INST_ACC_R][HIT_RESERVED] = 0
	L2_cache_stats_breakdown[INST_ACC_R][MISS] = 0
	L2_cache_stats_breakdown[INST_ACC_R][RESERVATION_FAIL] = 0
	L2_cache_stats_breakdown[INST_ACC_R][SECTOR_MISS] = 0
	L2_cache_stats_breakdown[L1_WR_ALLOC_R][HIT] = 0
	L2_cache_stats_breakdown[L1_WR_ALLOC_R][HIT_RESERVED] = 0
	L2_cache_stats_breakdown[L1_WR_ALLOC_R][MISS] = 0
	L2_cache_stats_breakdown[L1_WR_ALLOC_R][RESERVATION_FAIL] = 0
	L2_cache_stats_breakdown[L1_WR_ALLOC_R][SECTOR_MISS] = 0
	L2_cache_stats_breakdown[L2_WR_ALLOC_R][HIT] = 0
	L2_cache_stats_breakdown[L2_WR_ALLOC_R][HIT_RESERVED] = 0
	L2_cache_stats_breakdown[L2_WR_ALLOC_R][MISS] = 0
	L2_cache_stats_breakdown[L2_WR_ALLOC_R][RESERVATION_FAIL] = 0
	L2_cache_stats_breakdown[L2_WR_ALLOC_R][SECTOR_MISS] = 0
	L2_cache_stats_breakdown[GLOBAL_ACC_R][TOTAL_ACCESS] = 5128076
	L2_cache_stats_breakdown[TEXTURE_ACC_R][TOTAL_ACCESS] = 94572
	L2_cache_stats_breakdown[GLOBAL_ACC_W][TOTAL_ACCESS] = 2067665
	L2_cache_stats_breakdown[GLOBAL_ACC_R]_miss_rate = 0.7573
RT_L2_cache_stats_breakdown:
	rt_read_cold_miss = 247955
	rt_read_other_miss = 924699
	rt_stats[READ][HIT] = 1135684
	rt_stats[READ][HIT_RESERVED] = 12112
	rt_stats[READ][MISS] = 1172654
	rt_stats[READ][RESERVATION_FAIL] = 3122
	rt_stats[READ][SECTOR_MISS] = 1802688
	rt_read_miss_rate = 0.7216
	rt_stats[WRITE][HIT] = 0
	rt_stats[WRITE][HIT_RESERVED] = 0
	rt_stats[WRITE][MISS] = 89141
	rt_stats[WRITE][RESERVATION_FAIL] = 0
	rt_stats[WRITE][SECTOR_MISS] = 0
	rt_overall_miss_rate = 0.7275
L2_total_cache_reservation_fail_breakdown:
	L2_cache_stats_fail_breakdown[GLOBAL_ACC_R][MISS_QUEUE_FULL] = 60
	L2_cache_stats_fail_breakdown[GLOBAL_ACC_R][MSHR_ENTRY_FAIL] = 5052
	L2_cache_stats_fail_breakdown[GLOBAL_ACC_R][MSHR_MERGE_ENTRY_FAIL] = 4019
	L2_cache_stats_fail_breakdown[TEXTURE_ACC_R][MSHR_ENTRY_FAIL] = 280
L2_cache_data_port_util = 0.068
L2_cache_fill_port_util = 0.170
Stats for Kernel 0 Classification

Min 0.000000 Max 17.000000 Average 2.868364 
[ 1181734 68330111 0 2963614 387259 7795641 0 0 0 0 0 1775566 159712 159712 60192 7795641 0 60192 0 0 0 0 0 0 0 ]
Stats for Kernel 0 OP Classification

Min 1.000000 Max 146.000000 Average 36.825868 
[ 0 15451080 0 0 513143 0 0 0 0 0 0 3969252 0 0 0 0 0 0 0 0 0 0 0 1931224 0 0 0 0 0 0 0 5833501 0 0 0 0 0 0 0 0 0 31735391 0 10105317 384071 0 0 0 0 0 0 0 0 0 0 81920 0 0 176096 0 256187 0 1504892 2608993 0 0 1015808 1015808 0 0 49152 0 0 1962140 0 0 0 0 0 0 0 0 0 0 0 0 0 0 0 0 0 0 0 2031616 0 0 0 32768 159712 1995470 ]
Ray tracing memory access distribution: 
577524	3385518	417812	1082858	993717	89141	0	0	
rt_num_hits = 63707
rt_num_any_hits = 0
rt_n_anyhit_rays = 126944
rt_n_closesthit_rays = 32768
rt_n_total_rays = 159712
rt_max_tree_depth = 19
rt_max_nodes_per_ray = 264
rt_tot_nodes_per_ray = 4886188
rt_avg_nodes_per_ray = 30.593744
g_inst_type_latency = 0 30055168 3941400 0 0 12968901 12426672 0 169648256 0 0 582036482 8994810 1668095 0 0 110363 194804 0 0 0 0 0 0 0 0 0 1067993 
inst_class_by_shader
0:898123	39847976	0	2401300	163840	2854348	0	0	0	0	0	723067	159712	159712	0	0	0	0	0	0	
1:96005	4512235	0	192010	96005	864045	0	0	0	0	0	288015	0	0	0	0	0	0	0	0	
2:187606	23969900	0	370304	127414	4077248	0	0	0	0	0	764484	0	0	60192	0	0	0	0	0	
3:0	0	0	0	0	0	0	0	0	0	0	0	0	0	0	0	0	0	0	0	
4:0	0	0	0	0	0	0	0	0	0	0	0	0	0	0	0	0	0	0	0	
5:0	0	0	0	0	0	0	0	0	0	0	0	0	0	0	0	0	0	0	0	
6:0	0	0	0	0	0	0	0	0	0	0	0	0	0	0	0	0	0	0	0	
7:0	0	0	0	0	0	0	0	0	0	0	0	0	0	0	0	0	0	0	0	
8:0	0	0	0	0	0	0	0	0	0	0	0	0	0	0	0	0	0	0	0	
9:0	0	0	0	0	0	0	0	0	0	0	0	0	0	0	0	0	0	0	0	
10:0	0	0	0	0	0	0	0	0	0	0	0	0	0	0	0	0	0	0	0	
11:0	0	0	0	0	0	0	0	0	0	0	0	0	0	0	0	0	0	0	0	
12:0	0	0	0	0	0	0	0	0	0	0	0	0	0	0	0	0	0	0	0	
13:0	0	0	0	0	0	0	0	0	0	0	0	0	0	0	0	0	0	0	0	
14:0	0	0	0	0	0	0	0	0	0	0	0	0	0	0	0	0	0	0	0	
15:0	0	0	0	0	0	0	0	0	0	0	0	0	0	0	0	0	0	0	0	

icnt_total_pkts_mem_to_simt=7290313
icnt_total_pkts_simt_to_mem=7219384
LD_mem_lat_dist  0 0 1.41772 0 0 0 0 2.95886 160.121 1.45876 0.764409 0.926684 72.3624 23.0435 0.305986 5.1649 5.63404 0.721713 0.293036 0 1.12505 3.74935 1 0 0 0 0
ST_mem_lat_dist  0 0 0 0 0 0 0 1.50071 3.00664 160.336 0 0 0 0 0 0 0 0 0 0 1.45851 1.25835 4.45632 1 0 0 0
----------------------------Interconnect-DETAILS--------------------------------
Req_Network_injected_packets_num = 7219384
Req_Network_cycles = 5832519
Req_Network_injected_packets_per_cycle =       1.2378 
Req_Network_conflicts_per_cycle =       0.2795
Req_Network_conflicts_per_cycle_util =       0.3740
Req_Bank_Level_Parallism =       1.6562
Req_Network_in_buffer_full_per_cycle =       0.0000
Req_Network_in_buffer_avg_util =       0.3031
Req_Network_out_buffer_full_per_cycle =       0.0003
Req_Network_out_buffer_avg_util =       0.7350

Reply_Network_injected_packets_num = 7290313
Reply_Network_cycles = 5832519
Reply_Network_injected_packets_per_cycle =        1.2499
Reply_Network_conflicts_per_cycle =        0.5344
Reply_Network_conflicts_per_cycle_util =       0.7031
Reply_Bank_Level_Parallism =       1.6445
Reply_Network_in_buffer_full_per_cycle =       0.0000
Reply_Network_in_buffer_avg_util =       1.6513
Reply_Network_out_buffer_full_per_cycle =       0.0000
Reply_Network_out_buffer_avg_util =       0.1562
----------------------------END-of-Interconnect-DETAILS-------------------------


gpgpu_simulation_time = 0 days, 1 hrs, 10 min, 59 sec (4259 sec)
gpgpu_simulation_rate = 19166 (inst/sec)
gpgpu_simulation_rate = 1369 (cycle/sec)
gpgpu_silicon_slowdown = 997078x
Destroy streams for kernel 1: size 0
Max simulated kernels of 1 has reached, exiting.
GPGPU-Sim: *** exit detected ***
