Skipping setup_environment - already set
doing: export -n PTX_SIM_USE_PTX_FILE
doing: export LD_LIBRARY_PATH=/root/projects/crisp-framework/accel-sim-framework/util/job_launching/../../sim_run_11.7/gpgpu-sim-builds/accelsim-commit-1c17a3a8a922e56d395733e9a6dba7adc8970a30_modified_0.0_20251021-1717gpgpu-sim_git-commit-1c17a3a8a922e56d395733e9a6dba7adc8970a30_modified_1.0:/root/projects/crisp-framework/accel-sim-framework/gpu-simulator/gpgpu-sim/lib/gcc-/cuda-11070/release:/root/projects/crisp-framework/accel-sim-framework/gpgpu-sim/lib/gcc-/cuda-11070/release:/root/projects/crisp-framework/accel-sim-framework/gpgpu-sim/lib/gcc-/cuda-11070/release:/root/projects/crisp-framework/accel-sim-framework/gpgpu-sim/lib/gcc-/cuda-11070/release:/root/projects/crisp-framework/accel-sim-framework/gpgpu-sim/lib/gcc-/cuda-11070/release:/root/projects/crisp-framework/accel-sim-framework/gpgpu-sim/lib/gcc-/cuda-11070/release:/.singularity.d/libs
doing: cd /root/projects/crisp-framework/accel-sim-framework/util/job_launching/../../sim_run_11.7/render_passes_2k/NO_ARGS/ORIN-SASS-concurrent-fg-VISUAL
doing: export OPENCL_CURRENT_TEST_PATH=/root/projects/crisp-framework/accel-sim-framework/util/job_launching/../../sim_run_11.7/render_passes_2k/NO_ARGS/ORIN-SASS-concurrent-fg-VISUAL
doing: export OPENCL_REMOTE_GPU_HOST=REPLACE_REMOTE_HOST
doing 
doing: export PATH=/root/projects/crisp-framework/accel-sim-framework/gpu-simulator/gpgpu-sim/bin:/usr/local/cuda-11.7/bin:/root/projects/crisp-framework/accel-sim-framework/gpgpu-sim/bin:/usr/local/cuda-11.7/bin:/usr/local/sbin:/usr/local/bin:/usr/sbin:/usr/bin:/sbin:/bin
doing export CUDA_LAUNCH_BLOCKING=1
doing:  /root/projects/crisp-framework/accel-sim-framework/util/job_launching/../../sim_run_11.7/gpgpu-sim-builds/accelsim-commit-1c17a3a8a922e56d395733e9a6dba7adc8970a30_modified_0.0_20251021-1717gpgpu-sim_git-commit-1c17a3a8a922e56d395733e9a6dba7adc8970a30_modified_1.0/accel-sim.out  -config ./gpgpusim.config -trace ./traces/kernelslist.g
Accel-Sim [build accelsim-commit-1c17a3a8a922e56d395733e9a6dba7adc8970a30_modified_0.0_20251021-1717]

        *** GPGPU-Sim Simulator Version 4.2.0  [build gpgpu-sim_git-commit-1c17a3a8a922e56d395733e9a6dba7adc8970a30_modified_1.0] ***


GPGPU-Sim: Configuration options:

-save_embedded_ptx                      0 # saves ptx files embedded in binary as <n>.ptx
-keep                                   0 # keep intermediate files created by GPGPU-Sim when interfacing with external programs
-gpgpu_ptx_save_converted_ptxplus                    0 # Saved converted ptxplus to a file
-gpgpu_occupancy_sm_number                   87 # The SM number to pass to ptxas when getting register usage for computing GPU occupancy. This parameter is required in the config.
-ptx_opcode_latency_int           4,4,4,4,21 # Opcode latencies for integers <ADD,MAX,MUL,MAD,DIV,SHFL>Default 1,1,19,25,145,32
-ptx_opcode_latency_fp           4,4,4,4,39 # Opcode latencies for single precision floating points <ADD,MAX,MUL,MAD,DIV>Default 1,1,1,1,30
-ptx_opcode_latency_dp      64,64,64,64,330 # Opcode latencies for double precision floating points <ADD,MAX,MUL,MAD,DIV>Default 8,8,8,8,335
-ptx_opcode_latency_sfu                   21 # Opcode latencies for SFU instructionsDefault 8
-ptx_opcode_latency_tesnor                   25 # Opcode latencies for Tensor instructionsDefault 64
-ptx_opcode_initiation_int            2,2,2,2,2 # Opcode initiation intervals for integers <ADD,MAX,MUL,MAD,DIV,SHFL>Default 1,1,4,4,32,4
-ptx_opcode_initiation_fp            1,1,1,1,2 # Opcode initiation intervals for single precision floating points <ADD,MAX,MUL,MAD,DIV>Default 1,1,1,1,5
-ptx_opcode_initiation_dp      64,64,64,64,130 # Opcode initiation intervals for double precision floating points <ADD,MAX,MUL,MAD,DIV>Default 8,8,8,8,130
-ptx_opcode_initiation_sfu                    8 # Opcode initiation intervals for sfu instructionsDefault 8
-ptx_opcode_initiation_tensor                   25 # Opcode initiation intervals for tensor instructionsDefault 64
-cdp_latency         7200,8000,100,12000,1600 # CDP API latency <cudaStreamCreateWithFlags, cudaGetParameterBufferV2_init_perWarp, cudaGetParameterBufferV2_perKernel, cudaLaunchDeviceV2_init_perWarp, cudaLaunchDevicV2_perKernel>Default 7200,8000,100,12000,1600
-network_mode                           2 # Interconnection network mode
-inter_config_file                   mesh # Interconnection network config file
-icnt_in_buffer_limit                  512 # in_buffer_limit
-icnt_out_buffer_limit                  512 # out_buffer_limit
-icnt_subnets                           2 # subnets
-icnt_arbiter_algo                      1 # arbiter_algo
-icnt_verbose                           0 # inct_verbose
-icnt_grant_cycles                      1 # grant_cycles
-gpgpu_ptx_use_cuobjdump                    1 # Use cuobjdump to extract ptx and sass from binaries
-gpgpu_experimental_lib_support                    0 # Try to extract code from cuda libraries [Broken because of unknown cudaGetExportTable]
-checkpoint_option                      0 #  checkpointing flag (0 = no checkpoint)
-checkpoint_kernel                      1 #  checkpointing during execution of which kernel (1- 1st kernel)
-checkpoint_CTA                         0 #  checkpointing after # of CTA (< less than total CTA)
-resume_option                          0 #  resume flag (0 = no resume)
-resume_kernel                          0 #  Resume from which kernel (1= 1st kernel)
-resume_CTA                             0 #  resume from which CTA 
-checkpoint_CTA_t                       0 #  resume from which CTA 
-checkpoint_insn_Y                      0 #  resume from which CTA 
-gpgpu_ptx_convert_to_ptxplus                    0 # Convert SASS (native ISA) to ptxplus and run ptxplus
-gpgpu_ptx_force_max_capability                   87 # Force maximum compute capability
-gpgpu_ptx_inst_debug_to_file                    0 # Dump executed instructions' debug information to file
-gpgpu_ptx_inst_debug_file       inst_debug.txt # Executed instructions' debug output file
-gpgpu_ptx_inst_debug_thread_uid                    1 # Thread UID for executed instructions' debug output
-gpgpu_simd_model                       1 # 1 = post-dominator
-gpgpu_shader_core_pipeline              1536:32 # shader core pipeline config, i.e., {<nthread>:<warpsize>}
-gpgpu_tex_cache:l1  N:4:128:256,L:R:m:N:L,T:512:8,128:2 # per-shader L1 texture cache  (READ-ONLY) config  {<nsets>:<bsize>:<assoc>,<rep>:<wr>:<alloc>:<wr_alloc>,<mshr>:<N>:<merge>,<mq>:<rf>}
-gpgpu_const_cache:l1 N:128:64:8,L:R:f:N:L,S:2:64,4 # per-shader L1 constant memory cache  (READ-ONLY) config  {<nsets>:<bsize>:<assoc>,<rep>:<wr>:<alloc>:<wr_alloc>,<mshr>:<N>:<merge>,<mq>} 
-gpgpu_cache:il1     N:64:128:16,L:R:f:N:L,S:2:48,4 # shader L1 instruction cache config  {<nsets>:<bsize>:<assoc>,<rep>:<wr>:<alloc>:<wr_alloc>,<mshr>:<N>:<merge>,<mq>} 
-gpgpu_cache:dl1     S:4:128:384,L:T:m:L:L,A:384:48,16:0,32 # per-shader L1 data cache config  {<nsets>:<bsize>:<assoc>,<rep>:<wr>:<alloc>:<wr_alloc>,<mshr>:<N>:<merge>,<mq> | none}
-gpgpu_l1_cache_write_ratio                    0 # L1D write ratio
-gpgpu_l1_graphics_ratio                    0 # L1D graphics ratio
-gpgpu_l1_banks                         4 # The number of L1 cache banks
-gpgpu_l1_banks_byte_interleaving                   32 # l1 banks byte interleaving granularity
-gpgpu_l1_banks_hashing_function                    0 # l1 banks hashing function
-gpgpu_l1_latency                      38 # L1 Hit Latency
-gpgpu_smem_latency                    29 # smem Latency
-gpgpu_cache:dl1PrefL1                 none # per-shader L1 data cache config  {<nsets>:<bsize>:<assoc>,<rep>:<wr>:<alloc>:<wr_alloc>,<mshr>:<N>:<merge>,<mq> | none}
-gpgpu_cache:dl1PrefShared                 none # per-shader L1 data cache config  {<nsets>:<bsize>:<assoc>,<rep>:<wr>:<alloc>:<wr_alloc>,<mshr>:<N>:<merge>,<mq> | none}
-gpgpu_gmem_skip_L1D                    0 # global memory access skip L1D cache (implements -Xptxas -dlcm=cg, default=no skip)
-gpgpu_perfect_mem                      0 # enable perfect memory mode (no cache miss)
-n_regfile_gating_group                    4 # group of lanes that should be read/written together)
-gpgpu_clock_gated_reg_file                    0 # enable clock gated reg file for power calculations
-gpgpu_clock_gated_lanes                    0 # enable clock gated lanes for power calculations
-gpgpu_shader_registers                65536 # Number of registers per shader core. Limits number of concurrent CTAs. (default 8192)
-gpgpu_registers_per_block                65536 # Maximum number of registers per CTA. (default 8192)
-gpgpu_ignore_resources_limitation                    0 # gpgpu_ignore_resources_limitation (default 0)
-gpgpu_shader_cta                      32 # Maximum number of concurrent CTAs in shader (default 32)
-gpgpu_num_cta_barriers                   16 # Maximum number of named barriers per CTA (default 16)
-gpgpu_n_clusters                      16 # number of processing clusters
-gpgpu_n_cores_per_cluster                    1 # number of simd cores per cluster
-gpgpu_n_cluster_ejection_buffer_size                   32 # number of packets in ejection buffer
-gpgpu_n_ldst_response_buffer_size                    2 # number of response packets in ld/st unit ejection buffer
-gpgpu_shmem_per_block                49152 # Size of shared memory per thread block or CTA (default 48kB)
-gpgpu_shmem_size                  167936 # Size of shared memory per shader core (default 16kB)
-gpgpu_shmem_option  0,8,16,32,64,100,132,164 # Option list of shared memory sizes
-gpgpu_unified_l1d_size                  192 # Size of unified data cache(L1D + shared memory) in KB
-gpgpu_adaptive_cache_config                    1 # adaptive_cache_config
-gpgpu_shmem_sizeDefault               167936 # Size of shared memory per shader core (default 16kB)
-gpgpu_shmem_size_PrefL1                16384 # Size of shared memory per shader core (default 16kB)
-gpgpu_shmem_size_PrefShared                16384 # Size of shared memory per shader core (default 16kB)
-gpgpu_shmem_num_banks                   32 # Number of banks in the shared memory in each shader core (default 16)
-gpgpu_shmem_limited_broadcast                    0 # Limit shared memory to do one broadcast per cycle (default on)
-gpgpu_shmem_warp_parts                    1 # Number of portions a warp is divided into for shared memory bank conflict check 
-gpgpu_mem_unit_ports                    1 # The number of memory transactions allowed per core cycle
-gpgpu_shmem_warp_parts                    1 # Number of portions a warp is divided into for shared memory bank conflict check 
-gpgpu_warpdistro_shader                   -1 # Specify which shader core to collect the warp size distribution from
-gpgpu_warp_issue_shader                    0 # Specify which shader core to collect the warp issue distribution from
-gpgpu_local_mem_map                    0 # Mapping from local memory space address to simulated GPU physical address space (default = enabled)
-gpgpu_num_reg_banks                    8 # Number of register banks (default = 8)
-gpgpu_reg_bank_use_warp_id                    0 # Use warp ID in mapping registers to banks (default = off)
-gpgpu_sub_core_model                    1 # Sub Core Volta/Pascal model (default = off)
-gpgpu_enable_specialized_operand_collector                    0 # enable_specialized_operand_collector
-gpgpu_operand_collector_num_units_sp                    4 # number of collector units (default = 4)
-gpgpu_operand_collector_num_units_dp                    0 # number of collector units (default = 0)
-gpgpu_operand_collector_num_units_sfu                    4 # number of collector units (default = 4)
-gpgpu_operand_collector_num_units_int                    0 # number of collector units (default = 0)
-gpgpu_operand_collector_num_units_tensor_core                    4 # number of collector units (default = 4)
-gpgpu_operand_collector_num_units_mem                    2 # number of collector units (default = 2)
-gpgpu_operand_collector_num_units_gen                    8 # number of collector units (default = 0)
-gpgpu_operand_collector_num_in_ports_sp                    1 # number of collector unit in ports (default = 1)
-gpgpu_operand_collector_num_in_ports_dp                    0 # number of collector unit in ports (default = 0)
-gpgpu_operand_collector_num_in_ports_sfu                    1 # number of collector unit in ports (default = 1)
-gpgpu_operand_collector_num_in_ports_int                    0 # number of collector unit in ports (default = 0)
-gpgpu_operand_collector_num_in_ports_tensor_core                    1 # number of collector unit in ports (default = 1)
-gpgpu_operand_collector_num_in_ports_mem                    1 # number of collector unit in ports (default = 1)
-gpgpu_operand_collector_num_in_ports_gen                    8 # number of collector unit in ports (default = 0)
-gpgpu_operand_collector_num_out_ports_sp                    1 # number of collector unit in ports (default = 1)
-gpgpu_operand_collector_num_out_ports_dp                    0 # number of collector unit in ports (default = 0)
-gpgpu_operand_collector_num_out_ports_sfu                    1 # number of collector unit in ports (default = 1)
-gpgpu_operand_collector_num_out_ports_int                    0 # number of collector unit in ports (default = 0)
-gpgpu_operand_collector_num_out_ports_tensor_core                    1 # number of collector unit in ports (default = 1)
-gpgpu_operand_collector_num_out_ports_mem                    1 # number of collector unit in ports (default = 1)
-gpgpu_operand_collector_num_out_ports_gen                    8 # number of collector unit in ports (default = 0)
-gpgpu_coalesce_arch                   87 # Coalescing arch (GT200 = 13, Fermi = 20)
-gpgpu_num_sched_per_core                    4 # Number of warp schedulers per core
-gpgpu_max_insn_issue_per_warp                    1 # Max number of instructions that can be issued per warp in one cycle by scheduler (either 1 or 2)
-gpgpu_dual_issue_diff_exec_units                    1 # should dual issue use two different execution unit resources (Default = 1)
-gpgpu_simt_core_sim_order                    1 # Select the simulation order of cores in a cluster (0=Fix, 1=Round-Robin)
-gpgpu_pipeline_widths 4,4,4,4,4,4,4,4,4,4,8,4,4 # Pipeline widths ID_OC_SP,ID_OC_DP,ID_OC_INT,ID_OC_SFU,ID_OC_MEM,OC_EX_SP,OC_EX_DP,OC_EX_INT,OC_EX_SFU,OC_EX_MEM,EX_WB,ID_OC_TENSOR_CORE,OC_EX_TENSOR_CORE
-gpgpu_tensor_core_avail                    1 # Tensor Core Available (default=0)
-gpgpu_num_sp_units                     4 # Number of SP units (default=1)
-gpgpu_num_dp_units                     4 # Number of DP units (default=0)
-gpgpu_num_int_units                    4 # Number of INT units (default=0)
-gpgpu_num_sfu_units                    4 # Number of SF units (default=1)
-gpgpu_num_tensor_core_units                    4 # Number of tensor_core units (default=1)
-gpgpu_num_mem_units                    1 # Number if ldst units (default=1) WARNING: not hooked up to anything
-gpgpu_scheduler                      lrr # Scheduler configuration: < lrr | gto | two_level_active > If two_level_active:<num_active_warps>:<inner_prioritization>:<outer_prioritization>For complete list of prioritization values see shader.h enum scheduler_prioritization_typeDefault: gto
-gpgpu_concurrent_kernel_sm                    1 # Support concurrent kernels on a SM (default = disabled)
-gpgpu_invalidate_l2                    0 # Support concurrent kernels on a SM (default = disabled)
-gpgpu_concurrent_mig                    0 # Support concurrent kernels on a SM (default = disabled)
-gpgpu_concurrent_finegrain                    1 # Support concurrent kernels on a SM (default = disabled)
-gpgpu_graphics_sm_count                    8 # the number of SM that runs graphics kernels
-gpgpu_perfect_inst_const_cache                    1 # perfect inst and const cache mode, so all inst and const hits in the cache(default = disabled)
-gpgpu_perfect_l2                       0 # perfect l2 cache(default = disabled)
-gpgpu_skip_l2                          0 # perfect l2 cache(default = disabled)
-gpgpu_perfect_l1                       0 # perfect l1 cache(default = disabled)
-gpgpu_inst_fetch_throughput                    4 # the number of fetched intruction per warp each cycle
-gpgpu_reg_file_port_throughput                    2 # the number ports of the register file
-specialized_unit_1         1,4,4,4,4,BRA # specialized unit config {<enabled>,<num_units>:<latency>:<initiation>,<ID_OC_SPEC>:<OC_EX_SPEC>,<NAME>}
-specialized_unit_2       1,4,200,4,4,TEX # specialized unit config {<enabled>,<num_units>:<latency>:<initiation>,<ID_OC_SPEC>:<OC_EX_SPEC>,<NAME>}
-specialized_unit_3      1,4,1,4,4,TENSOR # specialized unit config {<enabled>,<num_units>:<latency>:<initiation>,<ID_OC_SPEC>:<OC_EX_SPEC>,<NAME>}
-specialized_unit_4         1,4,4,4,4,UDP # specialized unit config {<enabled>,<num_units>:<latency>:<initiation>,<ID_OC_SPEC>:<OC_EX_SPEC>,<NAME>}
-specialized_unit_5         0,4,4,4,4,BRA # specialized unit config {<enabled>,<num_units>:<latency>:<initiation>,<ID_OC_SPEC>:<OC_EX_SPEC>,<NAME>}
-specialized_unit_6         0,4,4,4,4,BRA # specialized unit config {<enabled>,<num_units>:<latency>:<initiation>,<ID_OC_SPEC>:<OC_EX_SPEC>,<NAME>}
-specialized_unit_7         0,4,4,4,4,BRA # specialized unit config {<enabled>,<num_units>:<latency>:<initiation>,<ID_OC_SPEC>:<OC_EX_SPEC>,<NAME>}
-specialized_unit_8         0,4,4,4,4,BRA # specialized unit config {<enabled>,<num_units>:<latency>:<initiation>,<ID_OC_SPEC>:<OC_EX_SPEC>,<NAME>}
-gpgpu_perf_sim_memcpy                    1 # Fill the L2 cache on memcpy
-gpgpu_simple_dram_model                    0 # simple_dram_model with fixed latency and BW
-gpgpu_dram_scheduler                    1 # 0 = fifo, 1 = FR-FCFS (defaul)
-gpgpu_dram_partition_queues          64:64:64:64 # i2$:$2d:d2$:$2i
-l2_ideal                               0 # Use a ideal L2 cache that always hit
-gpgpu_cache:dl2     S:64:128:16,L:B:m:L:X,A:192:4,32:0,32 # unified banked L2 data cache config  {<nsets>:<bsize>:<assoc>,<rep>:<wr>:<alloc>:<wr_alloc>,<mshr>:<N>:<merge>,<mq>}
-gpgpu_l2_graphics_ratio                   50 # L2D graphics ratio
-gpgpu_cache:dl2_texture_only                    0 # L2 cache used for texture only
-gpgpu_n_mem                           16 # number of memory modules (e.g. memory controllers) in gpu
-gpgpu_n_sub_partition_per_mchannel                    2 # number of memory subpartition in each memory module
-gpgpu_n_mem_per_ctrlr                    1 # number of memory chips per memory controller
-gpgpu_memlatency_stat                   14 # track and display latency statistics 0x2 enables MC, 0x4 enables queue logs
-gpgpu_frfcfs_dram_sched_queue_size                   64 # 0 = unlimited (default); # entries per chip
-gpgpu_dram_return_queue_size                  192 # 0 = unlimited (default); # entries per chip
-gpgpu_dram_buswidth                    2 # default = 4 bytes (8 bytes per cycle at DDR)
-gpgpu_dram_burst_length                   32 # Burst length of each DRAM request (default = 4 data bus cycle)
-dram_data_command_freq_ratio                    2 # Frequency ratio between DRAM data bus and command bus (default = 2 times, i.e. DDR)
-gpgpu_dram_timing_opt nbk=16:CCD=16:RRD=5:RCD=9:RAS=21:RP=9:RC=29:CL=9:WL=3:CDLR=4:WR=9:nbkgrp=4:CCDL=3:RTPL=2 # DRAM timing parameters = {nbk:tCCD:tRRD:tRCD:tRAS:tRP:tRC:CL:WL:tCDLR:tWR:nbkgrp:tCCDL:tRTPL}
-gpgpu_l2_rop_latency                  146 # ROP queue latency (default 85)
-dram_latency                         367 # DRAM latency (default 30)
-dram_dual_bus_interface                    0 # dual_bus_interface (default = 0) 
-dram_bnk_indexing_policy                    0 # dram_bnk_indexing_policy (0 = normal indexing, 1 = Xoring with the higher bits) (Default = 0)
-dram_bnkgrp_indexing_policy                    1 # dram_bnkgrp_indexing_policy (0 = take higher bits, 1 = take lower bits) (Default = 0)
-dram_seperate_write_queue_enable                    0 # Seperate_Write_Queue_Enable
-dram_write_queue_size             32:28:16 # Write_Queue_Size
-dram_elimnate_rw_turnaround                    0 # elimnate_rw_turnaround i.e set tWTR and tRTW = 0
-icnt_flit_size                        40 # icnt_flit_size
-gpgpu_mem_addr_mapping dramid@8;00000000.00000000.00000000.00000000.0000RRRR.RRRRRRRR.RBBBCCCC.BCCSSSSS # mapping memory address to dram model {dramid@<start bit>;<memory address map>}
-gpgpu_mem_addr_test                    0 # run sweep test to check address mapping for aliased address
-gpgpu_mem_address_mask                    1 # 0 = old addressing mask, 1 = new addressing mask, 2 = new add. mask + flipped bank sel and chip sel bits
-gpgpu_memory_partition_indexing                    2 # 0 = no indexing, 1 = bitwise xoring, 2 = IPoly, 3 = custom indexing
-accelwattch_xml_file accelwattch_sass_sim.xml # AccelWattch XML file
-power_simulation_enabled                    0 # Turn on power simulator (1=On, 0=Off)
-power_per_cycle_dump                    0 # Dump detailed power output each cycle
-hw_perf_file_name            hw_perf.csv # Hardware Performance Statistics file
-hw_perf_bench_name                       # Kernel Name in Hardware Performance Statistics file
-power_simulation_mode                    0 # Switch performance counter input for power simulation (0=Sim, 1=HW, 2=HW-Sim Hybrid)
-dvfs_enabled                           0 # Turn on DVFS for power model
-aggregate_power_stats                    0 # Accumulate power across all kernels
-accelwattch_hybrid_perfsim_L1_RH                    0 # Get L1 Read Hits for Accelwattch-Hybrid from Accel-Sim
-accelwattch_hybrid_perfsim_L1_RM                    0 # Get L1 Read Misses for Accelwattch-Hybrid from Accel-Sim
-accelwattch_hybrid_perfsim_L1_WH                    0 # Get L1 Write Hits for Accelwattch-Hybrid from Accel-Sim
-accelwattch_hybrid_perfsim_L1_WM                    0 # Get L1 Write Misses for Accelwattch-Hybrid from Accel-Sim
-accelwattch_hybrid_perfsim_L2_RH                    0 # Get L2 Read Hits for Accelwattch-Hybrid from Accel-Sim
-accelwattch_hybrid_perfsim_L2_RM                    0 # Get L2 Read Misses for Accelwattch-Hybrid from Accel-Sim
-accelwattch_hybrid_perfsim_L2_WH                    0 # Get L2 Write Hits for Accelwattch-Hybrid from Accel-Sim
-accelwattch_hybrid_perfsim_L2_WM                    0 # Get L2 Write Misses for Accelwattch-Hybrid from Accel-Sim
-accelwattch_hybrid_perfsim_CC_ACC                    0 # Get Constant Cache Acesses for Accelwattch-Hybrid from Accel-Sim
-accelwattch_hybrid_perfsim_SHARED_ACC                    0 # Get Shared Memory Acesses for Accelwattch-Hybrid from Accel-Sim
-accelwattch_hybrid_perfsim_DRAM_RD                    0 # Get DRAM Reads for Accelwattch-Hybrid from Accel-Sim
-accelwattch_hybrid_perfsim_DRAM_WR                    0 # Get DRAM Writes for Accelwattch-Hybrid from Accel-Sim
-accelwattch_hybrid_perfsim_NOC                    0 # Get Interconnect Acesses for Accelwattch-Hybrid from Accel-Sim
-accelwattch_hybrid_perfsim_PIPE_DUTY                    0 # Get Pipeline Duty Cycle Acesses for Accelwattch-Hybrid from Accel-Sim
-accelwattch_hybrid_perfsim_NUM_SM_IDLE                    0 # Get Number of Idle SMs for Accelwattch-Hybrid from Accel-Sim
-accelwattch_hybrid_perfsim_CYCLES                    0 # Get Executed Cycles for Accelwattch-Hybrid from Accel-Sim
-accelwattch_hybrid_perfsim_VOLTAGE                    0 # Get Chip Voltage for Accelwattch-Hybrid from Accel-Sim
-power_trace_enabled                    0 # produce a file for the power trace (1=On, 0=Off)
-power_trace_zlevel                     6 # Compression level of the power trace output log (0=no comp, 9=highest)
-steady_power_levels_enabled                    0 # produce a file for the steady power levels (1=On, 0=Off)
-steady_state_definition                  8:4 # allowed deviation:number of samples
-gpgpu_dynamic_sm_count                    4 # the number of SM that runs graphics kernels
-gpgpu_mps_sm_count                    12 # the number of SM that runs graphics kernels
-gpgpu_max_cycle                        0 # terminates gpu simulation early (0 = no limit)
-gpgpu_max_insn                         0 # terminates gpu simulation early (0 = no limit)
-gpgpu_max_cta                          0 # terminates gpu simulation early (0 = no limit)
-gpgpu_max_completed_cta                    0 # terminates gpu simulation early (0 = no limit)
-gpgpu_runtime_stat                   500 # display runtime statistics such as dram utilization {<freq>:<flag>}
-liveness_message_freq                    1 # Minimum number of seconds between simulation liveness messages (0 = always print)
-gpgpu_compute_capability_major                    8 # Major compute capability version number
-gpgpu_compute_capability_minor                    7 # Minor compute capability version number
-gpgpu_flush_l1_cache                    1 # Flush L1 cache at the end of each kernel call
-gpgpu_flush_l2_cache                    0 # Flush L2 cache at the end of each kernel call
-gpgpu_slicer                           0 # warped slicer
-gpgpu_utility                          0 # Utility-based partitioning
-max_cta_per_kernel                     1 # 
-enable_max_cta_per_kernel                    0 # 
-gpgpu_deadlock_detect                    1 # Stop the simulation at deadlock (1=on (default), 0=off)
-gpgpu_ptx_instruction_classification                    0 # if enabled will classify ptx instruction types per kernel (Max 255 kernels now)
-gpgpu_ptx_sim_mode                     0 # Select between Performance (default) or Functional simulation (1)
-gpgpu_clock_domains  1300:1300:1300:1300 # Clock Domain Frequencies in MhZ {<Core Clock>:<ICNT Clock>:<L2 Clock>:<DRAM Clock>}
-gpgpu_max_concurrent_kernel                   64 # maximum kernels that can run concurrently on GPU, set this value according to max resident grids for your compute capability
-gpgpu_cflog_interval                    0 # Interval between each snapshot in control flow logger
-visualizer_enabled                     1 # Turn on visualizer output (1=On, 0=Off)
-visualizer_outputfile                 NULL # Specifies the output log file for visualizer
-visualizer_zlevel                      6 # Compression level of the visualizer output log (0=no comp, 9=highest)
-gpgpu_stack_size_limit                 1024 # GPU thread stack size
-gpgpu_heap_size_limit              8388608 # GPU malloc heap size 
-gpgpu_runtime_sync_depth_limit                    2 # GPU device runtime synchronize depth
-gpgpu_runtime_pending_launch_count_limit                 2048 # GPU device runtime pending launch count
-trace_enabled                          0 # Turn on traces
-trace_components                    none # comma seperated list of traces to enable. Complete list found in trace_streams.tup. Default none
-trace_sampling_core                    0 # The core which is printed using CORE_DPRINTF. Default 0
-trace_sampling_memory_partition                   -1 # The memory partition which is printed using MEMPART_DPRINTF. Default -1 (i.e. all)
-enable_ptx_file_line_stats                    1 # Turn on PTX source line statistic profiling. (1 = On)
-ptx_line_stats_filename gpgpu_inst_stats.txt # Output file for PTX source line statistics.
-gpgpu_kernel_launch_latency                 5000 # Kernel launch latency in cycles. Default: 0
-gpgpu_cdp_enabled                      0 # Turn on CDP
-gpgpu_TB_launch_latency                    0 # thread block launch latency in cycles. Default: 0
-trace               ./traces/kernelslist.g # traces kernel filetraces kernel file directory
-trace_opcode_latency_initiation_int                  4,2 # Opcode latencies and initiation for integers in trace driven mode <latency,initiation>
-trace_opcode_latency_initiation_sp                  4,2 # Opcode latencies and initiation for sp in trace driven mode <latency,initiation>
-trace_opcode_latency_initiation_dp                64,64 # Opcode latencies and initiation for dp in trace driven mode <latency,initiation>
-trace_opcode_latency_initiation_sfu                 23,8 # Opcode latencies and initiation for sfu in trace driven mode <latency,initiation>
-trace_opcode_latency_initiation_tensor                  1,1 # Opcode latencies and initiation for tensor in trace driven mode <latency,initiation>
-trace_opcode_latency_initiation_spec_op_1                  4,4 # specialized unit config <latency,initiation>
-trace_opcode_latency_initiation_spec_op_2                200,4 # specialized unit config <latency,initiation>
-trace_opcode_latency_initiation_spec_op_3                  1,1 # specialized unit config <latency,initiation>
-trace_opcode_latency_initiation_spec_op_4                  4,1 # specialized unit config <latency,initiation>
-trace_opcode_latency_initiation_spec_op_5                  4,4 # specialized unit config <latency,initiation>
-trace_opcode_latency_initiation_spec_op_6                  4,4 # specialized unit config <latency,initiation>
-trace_opcode_latency_initiation_spec_op_7                  4,4 # specialized unit config <latency,initiation>
-trace_opcode_latency_initiation_spec_op_8                  4,4 # specialized unit config <latency,initiation>
DRAM Timing Options:
nbk                                    16 # number of banks
CCD                                    16 # column to column delay
RRD                                     5 # minimal delay between activation of rows in different banks
RCD                                     9 # row to column delay
RAS                                    21 # time needed to activate row
RP                                      9 # time needed to precharge (deactivate) row
RC                                     29 # row cycle time
CDLR                                    4 # switching from write to read (changes tWTR)
WR                                      9 # last data-in to row precharge
CL                                      9 # CAS latency
WL                                      3 # Write latency
nbkgrp                                  4 # number of bank groups
CCDL                                    3 # column to column delay between accesses to different bank groups
RTPL                                    2 # read to precharge delay between accesses to different bank groups
Total number of memory sub partition = 32
addr_dec_mask[CHIP]  = 0000000000000f00 	high:12 low:8
addr_dec_mask[BK]    = 0000000000070080 	high:19 low:7
addr_dec_mask[ROW]   = 00000000fff80000 	high:32 low:19
addr_dec_mask[COL]   = 000000000000f07f 	high:16 low:0
addr_dec_mask[BURST] = 000000000000001f 	high:5 low:0
sub_partition_id_mask = 0000000000000080
GPGPU-Sim uArch: clock freqs: 1300000000.000000:1300000000.000000:1300000000.000000:1300000000.000000
GPGPU-Sim uArch: clock periods: 0.00000000076923076923:0.00000000076923076923:0.00000000076923076923:0.00000000076923076923
*** Initializing Memory Statistics ***
GPGPU-Sim uArch: performance model initialization complete.
48 MESA kernels parsed
No compute kernel parsed
STEP1 - computes done at 0
defualt dynamic ratio 4
Processing kernel ./traces/kernel-MESA_SHADER_VERTEX_func0_main_0.traceg
-kernel name = MESA_SHADER_VERTEX_func0_main
-kernel id = 0
-grid dim = (321,1,1)
-block dim = (64,1,1)
-shmem = 0
-nregs = 16
-binary version = 80
-cuda stream id = 3856492
-shmem base_addr = 0xffffffff
-local mem base_addr = 0xffffffff
-nvbit version = 1.5.3
-accelsim tracer version = 3
Header info loaded for kernel command : ./traces/kernel-MESA_SHADER_VERTEX_func0_main_0.traceg
Processing kernel ./traces/kernel-MESA_SHADER_FRAGMENT_func1_main_1.traceg
-kernel name = MESA_SHADER_FRAGMENT_func1_main
-kernel id = 1
-grid dim = (912,1,1)
-block dim = (64,1,1)
-shmem = 0
-nregs = 16
-binary version = 80
-cuda stream id = 3856492
-shmem base_addr = 0xffffffff
-local mem base_addr = 0xffffffff
-nvbit version = 1.5.3
-accelsim tracer version = 3
Header info loaded for kernel command : ./traces/kernel-MESA_SHADER_FRAGMENT_func1_main_1.traceg
Processing kernel ./traces/kernel-MESA_SHADER_VERTEX_func0_main_2.traceg
-kernel name = MESA_SHADER_VERTEX_func0_main
-kernel id = 2
-grid dim = (60,1,1)
-block dim = (64,1,1)
-shmem = 0
-nregs = 16
-binary version = 80
-cuda stream id = 3856492
-shmem base_addr = 0xffffffff
-local mem base_addr = 0xffffffff
-nvbit version = 1.5.3
-accelsim tracer version = 3
Header info loaded for kernel command : ./traces/kernel-MESA_SHADER_VERTEX_func0_main_2.traceg
Processing kernel ./traces/kernel-MESA_SHADER_FRAGMENT_func1_main_3.traceg
-kernel name = MESA_SHADER_FRAGMENT_func1_main
-kernel id = 3
-grid dim = (148,1,1)
-block dim = (64,1,1)
-shmem = 0
-nregs = 16
-binary version = 80
-cuda stream id = 3856492
-shmem base_addr = 0xffffffff
-local mem base_addr = 0xffffffff
-nvbit version = 1.5.3
-accelsim tracer version = 3
Header info loaded for kernel command : ./traces/kernel-MESA_SHADER_FRAGMENT_func1_main_3.traceg
Processing kernel ./traces/kernel-MESA_SHADER_VERTEX_func0_main_4.traceg
-kernel name = MESA_SHADER_VERTEX_func0_main
-kernel id = 4
-grid dim = (86,1,1)
-block dim = (64,1,1)
-shmem = 0
-nregs = 16
-binary version = 80
-cuda stream id = 3856492
-shmem base_addr = 0xffffffff
-local mem base_addr = 0xffffffff
-nvbit version = 1.5.3
-accelsim tracer version = 3
Header info loaded for kernel command : ./traces/kernel-MESA_SHADER_VERTEX_func0_main_4.traceg
Processing kernel ./traces/kernel-MESA_SHADER_FRAGMENT_func1_main_5.traceg
-kernel name = MESA_SHADER_FRAGMENT_func1_main
-kernel id = 5
-grid dim = (209,1,1)
-block dim = (64,1,1)
-shmem = 0
-nregs = 16
-binary version = 80
-cuda stream id = 3856492
-shmem base_addr = 0xffffffff
-local mem base_addr = 0xffffffff
-nvbit version = 1.5.3
-accelsim tracer version = 3
Header info loaded for kernel command : ./traces/kernel-MESA_SHADER_FRAGMENT_func1_main_5.traceg
Processing kernel ./traces/kernel-MESA_SHADER_VERTEX_func0_main_6.traceg
-kernel name = MESA_SHADER_VERTEX_func0_main
-kernel id = 6
-grid dim = (698,1,1)
-block dim = (64,1,1)
-shmem = 0
-nregs = 16
-binary version = 80
-cuda stream id = 3856492
-shmem base_addr = 0xffffffff
-local mem base_addr = 0xffffffff
-nvbit version = 1.5.3
-accelsim tracer version = 3
Header info loaded for kernel command : ./traces/kernel-MESA_SHADER_VERTEX_func0_main_6.traceg
Processing kernel ./traces/kernel-MESA_SHADER_FRAGMENT_func1_main_7.traceg
-kernel name = MESA_SHADER_FRAGMENT_func1_main
-kernel id = 7
-grid dim = (7694,1,1)
-block dim = (64,1,1)
-shmem = 0
-nregs = 16
-binary version = 80
-cuda stream id = 3856492
-shmem base_addr = 0xffffffff
-local mem base_addr = 0xffffffff
-nvbit version = 1.5.3
-accelsim tracer version = 3
Header info loaded for kernel command : ./traces/kernel-MESA_SHADER_FRAGMENT_func1_main_7.traceg
Processing kernel ./traces/kernel-MESA_SHADER_VERTEX_func0_main_8.traceg
-kernel name = MESA_SHADER_VERTEX_func0_main
-kernel id = 8
-grid dim = (64,1,1)
-block dim = (64,1,1)
-shmem = 0
-nregs = 16
-binary version = 80
-cuda stream id = 3856492
-shmem base_addr = 0xffffffff
-local mem base_addr = 0xffffffff
-nvbit version = 1.5.3
-accelsim tracer version = 3
Header info loaded for kernel command : ./traces/kernel-MESA_SHADER_VERTEX_func0_main_8.traceg
Processing kernel ./traces/kernel-MESA_SHADER_FRAGMENT_func1_main_9.traceg
-kernel name = MESA_SHADER_FRAGMENT_func1_main
-kernel id = 9
-grid dim = (664,1,1)
-block dim = (64,1,1)
-shmem = 0
-nregs = 16
-binary version = 80
-cuda stream id = 3856492
-shmem base_addr = 0xffffffff
-local mem base_addr = 0xffffffff
-nvbit version = 1.5.3
-accelsim tracer version = 3
Header info loaded for kernel command : ./traces/kernel-MESA_SHADER_FRAGMENT_func1_main_9.traceg
Processing kernel ./traces/kernel-MESA_SHADER_VERTEX_func0_main_10.traceg
-kernel name = MESA_SHADER_VERTEX_func0_main
-kernel id = 10
-grid dim = (23,1,1)
-block dim = (64,1,1)
-shmem = 0
-nregs = 16
-binary version = 80
-cuda stream id = 3856492
-shmem base_addr = 0xffffffff
-local mem base_addr = 0xffffffff
-nvbit version = 1.5.3
-accelsim tracer version = 3
Header info loaded for kernel command : ./traces/kernel-MESA_SHADER_VERTEX_func0_main_10.traceg
Processing kernel ./traces/kernel-MESA_SHADER_FRAGMENT_func1_main_11.traceg
-kernel name = MESA_SHADER_FRAGMENT_func1_main
-kernel id = 11
-grid dim = (44529,1,1)
-block dim = (64,1,1)
-shmem = 0
-nregs = 16
-binary version = 80
-cuda stream id = 3856492
-shmem base_addr = 0xffffffff
-local mem base_addr = 0xffffffff
-nvbit version = 1.5.3
-accelsim tracer version = 3
Header info loaded for kernel command : ./traces/kernel-MESA_SHADER_FRAGMENT_func1_main_11.traceg
Processing kernel ./traces/kernel-MESA_SHADER_VERTEX_func0_main_12.traceg
-kernel name = MESA_SHADER_VERTEX_func0_main
-kernel id = 12
-grid dim = (125,1,1)
-block dim = (64,1,1)
-shmem = 0
-nregs = 16
-binary version = 80
-cuda stream id = 3856492
-shmem base_addr = 0xffffffff
-local mem base_addr = 0xffffffff
-nvbit version = 1.5.3
-accelsim tracer version = 3
Header info loaded for kernel command : ./traces/kernel-MESA_SHADER_VERTEX_func0_main_12.traceg
Processing kernel ./traces/kernel-MESA_SHADER_FRAGMENT_func1_main_13.traceg
-kernel name = MESA_SHADER_FRAGMENT_func1_main
-kernel id = 13
-grid dim = (15341,1,1)
-block dim = (64,1,1)
-shmem = 0
-nregs = 16
-binary version = 80
-cuda stream id = 3856492
-shmem base_addr = 0xffffffff
-local mem base_addr = 0xffffffff
-nvbit version = 1.5.3
-accelsim tracer version = 3
Header info loaded for kernel command : ./traces/kernel-MESA_SHADER_FRAGMENT_func1_main_13.traceg
Processing kernel ./traces/kernel-MESA_SHADER_VERTEX_func0_main_14.traceg
-kernel name = MESA_SHADER_VERTEX_func0_main
-kernel id = 14
-grid dim = (67,1,1)
-block dim = (64,1,1)
-shmem = 0
-nregs = 16
-binary version = 80
-cuda stream id = 3856492
-shmem base_addr = 0xffffffff
-local mem base_addr = 0xffffffff
-nvbit version = 1.5.3
-accelsim tracer version = 3
Header info loaded for kernel command : ./traces/kernel-MESA_SHADER_VERTEX_func0_main_14.traceg
Processing kernel ./traces/kernel-MESA_SHADER_FRAGMENT_func1_main_15.traceg
-kernel name = MESA_SHADER_FRAGMENT_func1_main
-kernel id = 15
-grid dim = (5029,1,1)
-block dim = (64,1,1)
-shmem = 0
-nregs = 16
-binary version = 80
-cuda stream id = 3856492
-shmem base_addr = 0xffffffff
-local mem base_addr = 0xffffffff
-nvbit version = 1.5.3
-accelsim tracer version = 3
Header info loaded for kernel command : ./traces/kernel-MESA_SHADER_FRAGMENT_func1_main_15.traceg
Processing kernel ./traces/kernel-MESA_SHADER_VERTEX_func0_main_16.traceg
-kernel name = MESA_SHADER_VERTEX_func0_main
-kernel id = 16
-grid dim = (295,1,1)
-block dim = (64,1,1)
-shmem = 0
-nregs = 16
-binary version = 80
-cuda stream id = 3856492
-shmem base_addr = 0xffffffff
-local mem base_addr = 0xffffffff
-nvbit version = 1.5.3
-accelsim tracer version = 3
Header info loaded for kernel command : ./traces/kernel-MESA_SHADER_VERTEX_func0_main_16.traceg
Processing kernel ./traces/kernel-MESA_SHADER_FRAGMENT_func1_main_17.traceg
-kernel name = MESA_SHADER_FRAGMENT_func1_main
-kernel id = 17
-grid dim = (15195,1,1)
-block dim = (64,1,1)
-shmem = 0
-nregs = 16
-binary version = 80
-cuda stream id = 3856492
-shmem base_addr = 0xffffffff
-local mem base_addr = 0xffffffff
-nvbit version = 1.5.3
-accelsim tracer version = 3
Header info loaded for kernel command : ./traces/kernel-MESA_SHADER_FRAGMENT_func1_main_17.traceg
Processing kernel ./traces/kernel-MESA_SHADER_VERTEX_func0_main_18.traceg
-kernel name = MESA_SHADER_VERTEX_func0_main
-kernel id = 18
-grid dim = (198,1,1)
-block dim = (64,1,1)
-shmem = 0
-nregs = 16
-binary version = 80
-cuda stream id = 3856492
-shmem base_addr = 0xffffffff
-local mem base_addr = 0xffffffff
-nvbit version = 1.5.3
-accelsim tracer version = 3
Header info loaded for kernel command : ./traces/kernel-MESA_SHADER_VERTEX_func0_main_18.traceg
Processing kernel ./traces/kernel-MESA_SHADER_FRAGMENT_func1_main_19.traceg
-kernel name = MESA_SHADER_FRAGMENT_func1_main
-kernel id = 19
-grid dim = (1618,1,1)
-block dim = (64,1,1)
-shmem = 0
-nregs = 16
-binary version = 80
-cuda stream id = 3856492
-shmem base_addr = 0xffffffff
-local mem base_addr = 0xffffffff
-nvbit version = 1.5.3
-accelsim tracer version = 3
Header info loaded for kernel command : ./traces/kernel-MESA_SHADER_FRAGMENT_func1_main_19.traceg
Processing kernel ./traces/kernel-MESA_SHADER_VERTEX_func0_main_20.traceg
-kernel name = MESA_SHADER_VERTEX_func0_main
-kernel id = 20
-grid dim = (22,1,1)
-block dim = (64,1,1)
-shmem = 0
-nregs = 16
-binary version = 80
-cuda stream id = 3856492
-shmem base_addr = 0xffffffff
-local mem base_addr = 0xffffffff
-nvbit version = 1.5.3
-accelsim tracer version = 3
Header info loaded for kernel command : ./traces/kernel-MESA_SHADER_VERTEX_func0_main_20.traceg
Processing kernel ./traces/kernel-MESA_SHADER_FRAGMENT_func1_main_21.traceg
-kernel name = MESA_SHADER_FRAGMENT_func1_main
-kernel id = 21
-grid dim = (1224,1,1)
-block dim = (64,1,1)
-shmem = 0
-nregs = 16
-binary version = 80
-cuda stream id = 3856492
-shmem base_addr = 0xffffffff
-local mem base_addr = 0xffffffff
-nvbit version = 1.5.3
-accelsim tracer version = 3
Header info loaded for kernel command : ./traces/kernel-MESA_SHADER_FRAGMENT_func1_main_21.traceg
Processing kernel ./traces/kernel-MESA_SHADER_VERTEX_func0_main_22.traceg
-kernel name = MESA_SHADER_VERTEX_func0_main
-kernel id = 22
-grid dim = (1,1,1)
-block dim = (64,1,1)
-shmem = 0
-nregs = 16
-binary version = 80
-cuda stream id = 3856492
-shmem base_addr = 0xffffffff
-local mem base_addr = 0xffffffff
-nvbit version = 1.5.3
-accelsim tracer version = 3
Header info loaded for kernel command : ./traces/kernel-MESA_SHADER_VERTEX_func0_main_22.traceg
Processing kernel ./traces/kernel-MESA_SHADER_FRAGMENT_func1_main_23.traceg
-kernel name = MESA_SHADER_FRAGMENT_func1_main
-kernel id = 23
-grid dim = (6844,1,1)
-block dim = (64,1,1)
-shmem = 0
-nregs = 16
-binary version = 80
-cuda stream id = 3856492
-shmem base_addr = 0xffffffff
-local mem base_addr = 0xffffffff
-nvbit version = 1.5.3
-accelsim tracer version = 3
Header info loaded for kernel command : ./traces/kernel-MESA_SHADER_FRAGMENT_func1_main_23.traceg
Processing kernel ./traces/kernel-MESA_SHADER_VERTEX_func0_main_24.traceg
-kernel name = MESA_SHADER_VERTEX_func0_main
-kernel id = 24
-grid dim = (621,1,1)
-block dim = (64,1,1)
-shmem = 0
-nregs = 16
-binary version = 80
-cuda stream id = 3856492
-shmem base_addr = 0xffffffff
-local mem base_addr = 0xffffffff
-nvbit version = 1.5.3
-accelsim tracer version = 3
Header info loaded for kernel command : ./traces/kernel-MESA_SHADER_VERTEX_func0_main_24.traceg
Processing kernel ./traces/kernel-MESA_SHADER_FRAGMENT_func1_main_25.traceg
-kernel name = MESA_SHADER_FRAGMENT_func1_main
-kernel id = 25
-grid dim = (586,1,1)
-block dim = (64,1,1)
-shmem = 0
-nregs = 16
-binary version = 80
-cuda stream id = 3856492
-shmem base_addr = 0xffffffff
-local mem base_addr = 0xffffffff
-nvbit version = 1.5.3
-accelsim tracer version = 3
Header info loaded for kernel command : ./traces/kernel-MESA_SHADER_FRAGMENT_func1_main_25.traceg
Processing kernel ./traces/kernel-MESA_SHADER_VERTEX_func0_main_26.traceg
-kernel name = MESA_SHADER_VERTEX_func0_main
-kernel id = 26
-grid dim = (184,1,1)
-block dim = (64,1,1)
-shmem = 0
-nregs = 16
-binary version = 80
-cuda stream id = 3856492
-shmem base_addr = 0xffffffff
-local mem base_addr = 0xffffffff
-nvbit version = 1.5.3
-accelsim tracer version = 3
Header info loaded for kernel command : ./traces/kernel-MESA_SHADER_VERTEX_func0_main_26.traceg
Processing kernel ./traces/kernel-MESA_SHADER_FRAGMENT_func1_main_27.traceg
-kernel name = MESA_SHADER_FRAGMENT_func1_main
-kernel id = 27
-grid dim = (74,1,1)
-block dim = (64,1,1)
-shmem = 0
-nregs = 16
-binary version = 80
-cuda stream id = 3856492
-shmem base_addr = 0xffffffff
-local mem base_addr = 0xffffffff
-nvbit version = 1.5.3
-accelsim tracer version = 3
Header info loaded for kernel command : ./traces/kernel-MESA_SHADER_FRAGMENT_func1_main_27.traceg
Processing kernel ./traces/kernel-MESA_SHADER_VERTEX_func0_main_28.traceg
-kernel name = MESA_SHADER_VERTEX_func0_main
-kernel id = 28
-grid dim = (1,1,1)
-block dim = (64,1,1)
-shmem = 0
-nregs = 16
-binary version = 80
-cuda stream id = 3856492
-shmem base_addr = 0xffffffff
-local mem base_addr = 0xffffffff
-nvbit version = 1.5.3
-accelsim tracer version = 3
Header info loaded for kernel command : ./traces/kernel-MESA_SHADER_VERTEX_func0_main_28.traceg
Processing kernel ./traces/kernel-MESA_SHADER_FRAGMENT_func1_main_29.traceg
-kernel name = MESA_SHADER_FRAGMENT_func1_main
-kernel id = 29
-grid dim = (458,1,1)
-block dim = (64,1,1)
-shmem = 0
-nregs = 16
-binary version = 80
-cuda stream id = 3856492
-shmem base_addr = 0xffffffff
-local mem base_addr = 0xffffffff
-nvbit version = 1.5.3
-accelsim tracer version = 3
Header info loaded for kernel command : ./traces/kernel-MESA_SHADER_FRAGMENT_func1_main_29.traceg
Processing kernel ./traces/kernel-MESA_SHADER_VERTEX_func0_main_30.traceg
-kernel name = MESA_SHADER_VERTEX_func0_main
-kernel id = 30
-grid dim = (394,1,1)
-block dim = (64,1,1)
-shmem = 0
-nregs = 16
-binary version = 80
-cuda stream id = 3856492
-shmem base_addr = 0xffffffff
-local mem base_addr = 0xffffffff
-nvbit version = 1.5.3
-accelsim tracer version = 3
Header info loaded for kernel command : ./traces/kernel-MESA_SHADER_VERTEX_func0_main_30.traceg
Processing kernel ./traces/kernel-MESA_SHADER_FRAGMENT_func1_main_31.traceg
-kernel name = MESA_SHADER_FRAGMENT_func1_main
-kernel id = 31
-grid dim = (69,1,1)
-block dim = (64,1,1)
-shmem = 0
-nregs = 16
-binary version = 80
-cuda stream id = 3856492
-shmem base_addr = 0xffffffff
-local mem base_addr = 0xffffffff
-nvbit version = 1.5.3
-accelsim tracer version = 3
Header info loaded for kernel command : ./traces/kernel-MESA_SHADER_FRAGMENT_func1_main_31.traceg
Processing kernel ./traces/kernel-MESA_SHADER_VERTEX_func0_main_32.traceg
-kernel name = MESA_SHADER_VERTEX_func0_main
-kernel id = 32
-grid dim = (315,1,1)
-block dim = (64,1,1)
-shmem = 0
-nregs = 16
-binary version = 80
-cuda stream id = 3856492
-shmem base_addr = 0xffffffff
-local mem base_addr = 0xffffffff
-nvbit version = 1.5.3
-accelsim tracer version = 3
Header info loaded for kernel command : ./traces/kernel-MESA_SHADER_VERTEX_func0_main_32.traceg
Processing kernel ./traces/kernel-MESA_SHADER_FRAGMENT_func1_main_33.traceg
-kernel name = MESA_SHADER_FRAGMENT_func1_main
-kernel id = 33
-grid dim = (921,1,1)
-block dim = (64,1,1)
-shmem = 0
-nregs = 16
-binary version = 80
-cuda stream id = 3856492
-shmem base_addr = 0xffffffff
-local mem base_addr = 0xffffffff
-nvbit version = 1.5.3
-accelsim tracer version = 3
Header info loaded for kernel command : ./traces/kernel-MESA_SHADER_FRAGMENT_func1_main_33.traceg
Processing kernel ./traces/kernel-MESA_SHADER_VERTEX_func0_main_34.traceg
-kernel name = MESA_SHADER_VERTEX_func0_main
-kernel id = 34
-grid dim = (1,1,1)
-block dim = (64,1,1)
-shmem = 0
-nregs = 16
-binary version = 80
-cuda stream id = 3856492
-shmem base_addr = 0xffffffff
-local mem base_addr = 0xffffffff
-nvbit version = 1.5.3
-accelsim tracer version = 3
Header info loaded for kernel command : ./traces/kernel-MESA_SHADER_VERTEX_func0_main_34.traceg
Processing kernel ./traces/kernel-MESA_SHADER_FRAGMENT_func1_main_35.traceg
-kernel name = MESA_SHADER_FRAGMENT_func1_main
-kernel id = 35
-grid dim = (22,1,1)
-block dim = (64,1,1)
-shmem = 0
-nregs = 16
-binary version = 80
-cuda stream id = 3856492
-shmem base_addr = 0xffffffff
-local mem base_addr = 0xffffffff
-nvbit version = 1.5.3
-accelsim tracer version = 3
Header info loaded for kernel command : ./traces/kernel-MESA_SHADER_FRAGMENT_func1_main_35.traceg
Processing kernel ./traces/kernel-MESA_SHADER_VERTEX_func0_main_36.traceg
-kernel name = MESA_SHADER_VERTEX_func0_main
-kernel id = 36
-grid dim = (236,1,1)
-block dim = (64,1,1)
-shmem = 0
-nregs = 16
-binary version = 80
-cuda stream id = 3856492
-shmem base_addr = 0xffffffff
-local mem base_addr = 0xffffffff
-nvbit version = 1.5.3
-accelsim tracer version = 3
Header info loaded for kernel command : ./traces/kernel-MESA_SHADER_VERTEX_func0_main_36.traceg
Processing kernel ./traces/kernel-MESA_SHADER_FRAGMENT_func1_main_37.traceg
-kernel name = MESA_SHADER_FRAGMENT_func1_main
-kernel id = 37
-grid dim = (14348,1,1)
-block dim = (64,1,1)
-shmem = 0
-nregs = 16
-binary version = 80
-cuda stream id = 3856492
-shmem base_addr = 0xffffffff
-local mem base_addr = 0xffffffff
-nvbit version = 1.5.3
-accelsim tracer version = 3
Header info loaded for kernel command : ./traces/kernel-MESA_SHADER_FRAGMENT_func1_main_37.traceg
Processing kernel ./traces/kernel-MESA_SHADER_VERTEX_func0_main_38.traceg
-kernel name = MESA_SHADER_VERTEX_func0_main
-kernel id = 38
-grid dim = (317,1,1)
-block dim = (64,1,1)
-shmem = 0
-nregs = 16
-binary version = 80
-cuda stream id = 3856492
-shmem base_addr = 0xffffffff
-local mem base_addr = 0xffffffff
-nvbit version = 1.5.3
-accelsim tracer version = 3
Header info loaded for kernel command : ./traces/kernel-MESA_SHADER_VERTEX_func0_main_38.traceg
Processing kernel ./traces/kernel-MESA_SHADER_FRAGMENT_func1_main_39.traceg
-kernel name = MESA_SHADER_FRAGMENT_func1_main
-kernel id = 39
-grid dim = (19979,1,1)
-block dim = (64,1,1)
-shmem = 0
-nregs = 16
-binary version = 80
-cuda stream id = 3856492
-shmem base_addr = 0xffffffff
-local mem base_addr = 0xffffffff
-nvbit version = 1.5.3
-accelsim tracer version = 3
Header info loaded for kernel command : ./traces/kernel-MESA_SHADER_FRAGMENT_func1_main_39.traceg
Processing kernel ./traces/kernel-MESA_SHADER_VERTEX_func0_main_40.traceg
-kernel name = MESA_SHADER_VERTEX_func0_main
-kernel id = 40
-grid dim = (225,1,1)
-block dim = (64,1,1)
-shmem = 0
-nregs = 16
-binary version = 80
-cuda stream id = 3856492
-shmem base_addr = 0xffffffff
-local mem base_addr = 0xffffffff
-nvbit version = 1.5.3
-accelsim tracer version = 3
Header info loaded for kernel command : ./traces/kernel-MESA_SHADER_VERTEX_func0_main_40.traceg
Processing kernel ./traces/kernel-MESA_SHADER_FRAGMENT_func1_main_41.traceg
-kernel name = MESA_SHADER_FRAGMENT_func1_main
-kernel id = 41
-grid dim = (2251,1,1)
-block dim = (64,1,1)
-shmem = 0
-nregs = 16
-binary version = 80
-cuda stream id = 3856492
-shmem base_addr = 0xffffffff
-local mem base_addr = 0xffffffff
-nvbit version = 1.5.3
-accelsim tracer version = 3
Header info loaded for kernel command : ./traces/kernel-MESA_SHADER_FRAGMENT_func1_main_41.traceg
Processing kernel ./traces/kernel-MESA_SHADER_VERTEX_func0_main_42.traceg
-kernel name = MESA_SHADER_VERTEX_func0_main
-kernel id = 42
-grid dim = (248,1,1)
-block dim = (64,1,1)
-shmem = 0
-nregs = 16
-binary version = 80
-cuda stream id = 3856492
-shmem base_addr = 0xffffffff
-local mem base_addr = 0xffffffff
-nvbit version = 1.5.3
-accelsim tracer version = 3
Header info loaded for kernel command : ./traces/kernel-MESA_SHADER_VERTEX_func0_main_42.traceg
Processing kernel ./traces/kernel-MESA_SHADER_FRAGMENT_func1_main_43.traceg
-kernel name = MESA_SHADER_FRAGMENT_func1_main
-kernel id = 43
-grid dim = (494,1,1)
-block dim = (64,1,1)
-shmem = 0
-nregs = 16
-binary version = 80
-cuda stream id = 3856492
-shmem base_addr = 0xffffffff
-local mem base_addr = 0xffffffff
-nvbit version = 1.5.3
-accelsim tracer version = 3
Header info loaded for kernel command : ./traces/kernel-MESA_SHADER_FRAGMENT_func1_main_43.traceg
Processing kernel ./traces/kernel-MESA_SHADER_VERTEX_func0_main_44.traceg
-kernel name = MESA_SHADER_VERTEX_func0_main
-kernel id = 44
-grid dim = (243,1,1)
-block dim = (64,1,1)
-shmem = 0
-nregs = 16
-binary version = 80
-cuda stream id = 3856492
-shmem base_addr = 0xffffffff
-local mem base_addr = 0xffffffff
-nvbit version = 1.5.3
-accelsim tracer version = 3
Header info loaded for kernel command : ./traces/kernel-MESA_SHADER_VERTEX_func0_main_44.traceg
Processing kernel ./traces/kernel-MESA_SHADER_FRAGMENT_func1_main_45.traceg
-kernel name = MESA_SHADER_FRAGMENT_func1_main
-kernel id = 45
-grid dim = (1577,1,1)
-block dim = (64,1,1)
-shmem = 0
-nregs = 16
-binary version = 80
-cuda stream id = 3856492
-shmem base_addr = 0xffffffff
-local mem base_addr = 0xffffffff
-nvbit version = 1.5.3
-accelsim tracer version = 3
Header info loaded for kernel command : ./traces/kernel-MESA_SHADER_FRAGMENT_func1_main_45.traceg
Processing kernel ./traces/kernel-MESA_SHADER_VERTEX_func0_main_46.traceg
-kernel name = MESA_SHADER_VERTEX_func0_main
-kernel id = 46
-grid dim = (162,1,1)
-block dim = (64,1,1)
-shmem = 0
-nregs = 16
-binary version = 80
-cuda stream id = 3856492
-shmem base_addr = 0xffffffff
-local mem base_addr = 0xffffffff
-nvbit version = 1.5.3
-accelsim tracer version = 3
Header info loaded for kernel command : ./traces/kernel-MESA_SHADER_VERTEX_func0_main_46.traceg
Processing kernel ./traces/kernel-MESA_SHADER_FRAGMENT_func1_main_47.traceg
-kernel name = MESA_SHADER_FRAGMENT_func1_main
-kernel id = 47
-grid dim = (1076,1,1)
-block dim = (64,1,1)
-shmem = 0
-nregs = 16
-binary version = 80
-cuda stream id = 3856492
-shmem base_addr = 0xffffffff
-local mem base_addr = 0xffffffff
-nvbit version = 1.5.3
-accelsim tracer version = 3
Header info loaded for kernel command : ./traces/kernel-MESA_SHADER_FRAGMENT_func1_main_47.traceg
launching kernel name: MESA_SHADER_VERTEX_func0_main uid: 1
launching kernel name: MESA_SHADER_VERTEX_func0_main uid: 3
launching kernel name: MESA_SHADER_VERTEX_func0_main uid: 5
launching kernel name: MESA_SHADER_VERTEX_func0_main uid: 7
launching kernel name: MESA_SHADER_VERTEX_func0_main uid: 9
launching kernel name: MESA_SHADER_VERTEX_func0_main uid: 11
launching kernel name: MESA_SHADER_VERTEX_func0_main uid: 13
launching kernel name: MESA_SHADER_VERTEX_func0_main uid: 15
launching kernel name: MESA_SHADER_VERTEX_func0_main uid: 17
launching kernel name: MESA_SHADER_VERTEX_func0_main uid: 19
launching kernel name: MESA_SHADER_VERTEX_func0_main uid: 21
launching kernel name: MESA_SHADER_VERTEX_func0_main uid: 23
launching kernel name: MESA_SHADER_VERTEX_func0_main uid: 25
launching kernel name: MESA_SHADER_VERTEX_func0_main uid: 27
launching kernel name: MESA_SHADER_VERTEX_func0_main uid: 29
launching kernel name: MESA_SHADER_VERTEX_func0_main uid: 31
launching kernel name: MESA_SHADER_VERTEX_func0_main uid: 33
launching kernel name: MESA_SHADER_VERTEX_func0_main uid: 35
launching kernel name: MESA_SHADER_VERTEX_func0_main uid: 37
launching kernel name: MESA_SHADER_VERTEX_func0_main uid: 39
launching kernel name: MESA_SHADER_VERTEX_func0_main uid: 41
launching kernel name: MESA_SHADER_VERTEX_func0_main uid: 43
launching kernel name: MESA_SHADER_VERTEX_func0_main uid: 45
launching kernel name: MESA_SHADER_VERTEX_func0_main uid: 47
GPGPU-Sim: Reconfigure L1 cache to 192KB
MESA_SHADER_VERTEX_func0_main_0 thread block = 0,0,0
MESA_SHADER_VERTEX_func0_main_0 thread block = 1,0,0
MESA_SHADER_VERTEX_func0_main_0 thread block = 2,0,0
MESA_SHADER_VERTEX_func0_main_0 thread block = 3,0,0
MESA_SHADER_VERTEX_func0_main_0 thread block = 4,0,0
MESA_SHADER_VERTEX_func0_main_0 thread block = 5,0,0
MESA_SHADER_VERTEX_func0_main_0 thread block = 6,0,0
MESA_SHADER_VERTEX_func0_main_0 thread block = 7,0,0
MESA_SHADER_VERTEX_func0_main_0 thread block = 8,0,0
MESA_SHADER_VERTEX_func0_main_0 thread block = 9,0,0
MESA_SHADER_VERTEX_func0_main_0 thread block = 10,0,0
MESA_SHADER_VERTEX_func0_main_0 thread block = 11,0,0
MESA_SHADER_VERTEX_func0_main_0 thread block = 12,0,0
MESA_SHADER_VERTEX_func0_main_0 thread block = 13,0,0
MESA_SHADER_VERTEX_func0_main_0 thread block = 14,0,0
MESA_SHADER_VERTEX_func0_main_0 thread block = 15,0,0
MESA_SHADER_VERTEX_func0_main_0 thread block = 16,0,0
MESA_SHADER_VERTEX_func0_main_0 thread block = 17,0,0
MESA_SHADER_VERTEX_func0_main_0 thread block = 18,0,0
MESA_SHADER_VERTEX_func0_main_0 thread block = 19,0,0
MESA_SHADER_VERTEX_func0_main_0 thread block = 20,0,0
MESA_SHADER_VERTEX_func0_main_0 thread block = 21,0,0
MESA_SHADER_VERTEX_func0_main_0 thread block = 22,0,0
MESA_SHADER_VERTEX_func0_main_0 thread block = 23,0,0
MESA_SHADER_VERTEX_func0_main_0 thread block = 24,0,0
MESA_SHADER_VERTEX_func0_main_0 thread block = 25,0,0
MESA_SHADER_VERTEX_func0_main_0 thread block = 26,0,0
MESA_SHADER_VERTEX_func0_main_0 thread block = 27,0,0
MESA_SHADER_VERTEX_func0_main_0 thread block = 28,0,0
MESA_SHADER_VERTEX_func0_main_0 thread block = 29,0,0
MESA_SHADER_VERTEX_func0_main_0 thread block = 30,0,0
MESA_SHADER_VERTEX_func0_main_0 thread block = 31,0,0
MESA_SHADER_VERTEX_func0_main_0 thread block = 32,0,0
MESA_SHADER_VERTEX_func0_main_0 thread block = 33,0,0
MESA_SHADER_VERTEX_func0_main_0 thread block = 34,0,0
MESA_SHADER_VERTEX_func0_main_0 thread block = 35,0,0
MESA_SHADER_VERTEX_func0_main_0 thread block = 36,0,0
MESA_SHADER_VERTEX_func0_main_0 thread block = 37,0,0
MESA_SHADER_VERTEX_func0_main_0 thread block = 38,0,0
MESA_SHADER_VERTEX_func0_main_0 thread block = 39,0,0
MESA_SHADER_VERTEX_func0_main_0 thread block = 40,0,0
MESA_SHADER_VERTEX_func0_main_0 thread block = 41,0,0
MESA_SHADER_VERTEX_func0_main_0 thread block = 42,0,0
MESA_SHADER_VERTEX_func0_main_0 thread block = 43,0,0
MESA_SHADER_VERTEX_func0_main_0 thread block = 44,0,0
MESA_SHADER_VERTEX_func0_main_0 thread block = 45,0,0
MESA_SHADER_VERTEX_func0_main_0 thread block = 46,0,0
MESA_SHADER_VERTEX_func0_main_0 thread block = 47,0,0
MESA_SHADER_VERTEX_func0_main_0 thread block = 48,0,0
MESA_SHADER_VERTEX_func0_main_0 thread block = 49,0,0
MESA_SHADER_VERTEX_func0_main_0 thread block = 50,0,0
MESA_SHADER_VERTEX_func0_main_0 thread block = 51,0,0
MESA_SHADER_VERTEX_func0_main_0 thread block = 52,0,0
MESA_SHADER_VERTEX_func0_main_0 thread block = 53,0,0
MESA_SHADER_VERTEX_func0_main_0 thread block = 54,0,0
MESA_SHADER_VERTEX_func0_main_0 thread block = 55,0,0
MESA_SHADER_VERTEX_func0_main_0 thread block = 56,0,0
MESA_SHADER_VERTEX_func0_main_0 thread block = 57,0,0
MESA_SHADER_VERTEX_func0_main_0 thread block = 58,0,0
MESA_SHADER_VERTEX_func0_main_0 thread block = 59,0,0
MESA_SHADER_VERTEX_func0_main_0 thread block = 60,0,0
MESA_SHADER_VERTEX_func0_main_0 thread block = 61,0,0
MESA_SHADER_VERTEX_func0_main_0 thread block = 62,0,0
MESA_SHADER_VERTEX_func0_main_0 thread block = 63,0,0
MESA_SHADER_VERTEX_func0_main_0 thread block = 64,0,0
MESA_SHADER_VERTEX_func0_main_0 thread block = 65,0,0
MESA_SHADER_VERTEX_func0_main_0 thread block = 66,0,0
MESA_SHADER_VERTEX_func0_main_0 thread block = 67,0,0
MESA_SHADER_VERTEX_func0_main_0 thread block = 68,0,0
MESA_SHADER_VERTEX_func0_main_0 thread block = 69,0,0
MESA_SHADER_VERTEX_func0_main_0 thread block = 70,0,0
MESA_SHADER_VERTEX_func0_main_0 thread block = 71,0,0
MESA_SHADER_VERTEX_func0_main_0 thread block = 72,0,0
MESA_SHADER_VERTEX_func0_main_0 thread block = 73,0,0
MESA_SHADER_VERTEX_func0_main_0 thread block = 74,0,0
MESA_SHADER_VERTEX_func0_main_0 thread block = 75,0,0
MESA_SHADER_VERTEX_func0_main_0 thread block = 76,0,0
MESA_SHADER_VERTEX_func0_main_0 thread block = 77,0,0
MESA_SHADER_VERTEX_func0_main_0 thread block = 78,0,0
MESA_SHADER_VERTEX_func0_main_0 thread block = 79,0,0
MESA_SHADER_VERTEX_func0_main_0 thread block = 80,0,0
MESA_SHADER_VERTEX_func0_main_0 thread block = 81,0,0
MESA_SHADER_VERTEX_func0_main_0 thread block = 82,0,0
MESA_SHADER_VERTEX_func0_main_0 thread block = 83,0,0
MESA_SHADER_VERTEX_func0_main_0 thread block = 84,0,0
MESA_SHADER_VERTEX_func0_main_0 thread block = 85,0,0
MESA_SHADER_VERTEX_func0_main_0 thread block = 86,0,0
MESA_SHADER_VERTEX_func0_main_0 thread block = 87,0,0
MESA_SHADER_VERTEX_func0_main_0 thread block = 88,0,0
MESA_SHADER_VERTEX_func0_main_0 thread block = 89,0,0
MESA_SHADER_VERTEX_func0_main_0 thread block = 90,0,0
MESA_SHADER_VERTEX_func0_main_0 thread block = 91,0,0
MESA_SHADER_VERTEX_func0_main_0 thread block = 92,0,0
MESA_SHADER_VERTEX_func0_main_0 thread block = 93,0,0
MESA_SHADER_VERTEX_func0_main_0 thread block = 94,0,0
MESA_SHADER_VERTEX_func0_main_0 thread block = 95,0,0
MESA_SHADER_VERTEX_func0_main_0 thread block = 96,0,0
MESA_SHADER_VERTEX_func0_main_0 thread block = 97,0,0
MESA_SHADER_VERTEX_func0_main_0 thread block = 98,0,0
MESA_SHADER_VERTEX_func0_main_0 thread block = 99,0,0
MESA_SHADER_VERTEX_func0_main_0 thread block = 100,0,0
MESA_SHADER_VERTEX_func0_main_0 thread block = 101,0,0
MESA_SHADER_VERTEX_func0_main_0 thread block = 102,0,0
MESA_SHADER_VERTEX_func0_main_0 thread block = 103,0,0
MESA_SHADER_VERTEX_func0_main_0 thread block = 104,0,0
MESA_SHADER_VERTEX_func0_main_0 thread block = 105,0,0
MESA_SHADER_VERTEX_func0_main_0 thread block = 106,0,0
MESA_SHADER_VERTEX_func0_main_0 thread block = 107,0,0
MESA_SHADER_VERTEX_func0_main_0 thread block = 108,0,0
MESA_SHADER_VERTEX_func0_main_0 thread block = 109,0,0
MESA_SHADER_VERTEX_func0_main_0 thread block = 110,0,0
MESA_SHADER_VERTEX_func0_main_0 thread block = 111,0,0
MESA_SHADER_VERTEX_func0_main_0 thread block = 112,0,0
MESA_SHADER_VERTEX_func0_main_0 thread block = 113,0,0
MESA_SHADER_VERTEX_func0_main_0 thread block = 114,0,0
MESA_SHADER_VERTEX_func0_main_0 thread block = 115,0,0
MESA_SHADER_VERTEX_func0_main_0 thread block = 116,0,0
MESA_SHADER_VERTEX_func0_main_0 thread block = 117,0,0
MESA_SHADER_VERTEX_func0_main_0 thread block = 118,0,0
MESA_SHADER_VERTEX_func0_main_0 thread block = 119,0,0
MESA_SHADER_VERTEX_func0_main_0 thread block = 120,0,0
MESA_SHADER_VERTEX_func0_main_0 thread block = 121,0,0
MESA_SHADER_VERTEX_func0_main_0 thread block = 122,0,0
MESA_SHADER_VERTEX_func0_main_0 thread block = 123,0,0
MESA_SHADER_VERTEX_func0_main_0 thread block = 124,0,0
MESA_SHADER_VERTEX_func0_main_0 thread block = 125,0,0
MESA_SHADER_VERTEX_func0_main_0 thread block = 126,0,0
MESA_SHADER_VERTEX_func0_main_0 thread block = 127,0,0
MESA_SHADER_VERTEX_func0_main_0 thread block = 128,0,0
MESA_SHADER_VERTEX_func0_main_0 thread block = 129,0,0
MESA_SHADER_VERTEX_func0_main_0 thread block = 130,0,0
MESA_SHADER_VERTEX_func0_main_0 thread block = 131,0,0
MESA_SHADER_VERTEX_func0_main_0 thread block = 132,0,0
MESA_SHADER_VERTEX_func0_main_0 thread block = 133,0,0
MESA_SHADER_VERTEX_func0_main_0 thread block = 134,0,0
MESA_SHADER_VERTEX_func0_main_0 thread block = 135,0,0
MESA_SHADER_VERTEX_func0_main_0 thread block = 136,0,0
MESA_SHADER_VERTEX_func0_main_0 thread block = 137,0,0
MESA_SHADER_VERTEX_func0_main_0 thread block = 138,0,0
MESA_SHADER_VERTEX_func0_main_0 thread block = 139,0,0
MESA_SHADER_VERTEX_func0_main_0 thread block = 140,0,0
MESA_SHADER_VERTEX_func0_main_0 thread block = 141,0,0
MESA_SHADER_VERTEX_func0_main_0 thread block = 142,0,0
MESA_SHADER_VERTEX_func0_main_0 thread block = 143,0,0
MESA_SHADER_VERTEX_func0_main_0 thread block = 144,0,0
MESA_SHADER_VERTEX_func0_main_0 thread block = 145,0,0
MESA_SHADER_VERTEX_func0_main_0 thread block = 146,0,0
MESA_SHADER_VERTEX_func0_main_0 thread block = 147,0,0
MESA_SHADER_VERTEX_func0_main_0 thread block = 148,0,0
MESA_SHADER_VERTEX_func0_main_0 thread block = 149,0,0
MESA_SHADER_VERTEX_func0_main_0 thread block = 150,0,0
MESA_SHADER_VERTEX_func0_main_0 thread block = 151,0,0
MESA_SHADER_VERTEX_func0_main_0 thread block = 152,0,0
MESA_SHADER_VERTEX_func0_main_0 thread block = 153,0,0
MESA_SHADER_VERTEX_func0_main_0 thread block = 154,0,0
MESA_SHADER_VERTEX_func0_main_0 thread block = 155,0,0
MESA_SHADER_VERTEX_func0_main_0 thread block = 156,0,0
MESA_SHADER_VERTEX_func0_main_0 thread block = 157,0,0
MESA_SHADER_VERTEX_func0_main_0 thread block = 158,0,0
MESA_SHADER_VERTEX_func0_main_0 thread block = 159,0,0
MESA_SHADER_VERTEX_func0_main_0 thread block = 160,0,0
MESA_SHADER_VERTEX_func0_main_0 thread block = 161,0,0
MESA_SHADER_VERTEX_func0_main_0 thread block = 162,0,0
MESA_SHADER_VERTEX_func0_main_0 thread block = 163,0,0
MESA_SHADER_VERTEX_func0_main_0 thread block = 164,0,0
MESA_SHADER_VERTEX_func0_main_0 thread block = 165,0,0
MESA_SHADER_VERTEX_func0_main_0 thread block = 166,0,0
MESA_SHADER_VERTEX_func0_main_0 thread block = 167,0,0
MESA_SHADER_VERTEX_func0_main_0 thread block = 168,0,0
MESA_SHADER_VERTEX_func0_main_0 thread block = 169,0,0
MESA_SHADER_VERTEX_func0_main_0 thread block = 170,0,0
MESA_SHADER_VERTEX_func0_main_0 thread block = 171,0,0
MESA_SHADER_VERTEX_func0_main_0 thread block = 172,0,0
MESA_SHADER_VERTEX_func0_main_0 thread block = 173,0,0
MESA_SHADER_VERTEX_func0_main_0 thread block = 174,0,0
MESA_SHADER_VERTEX_func0_main_0 thread block = 175,0,0
MESA_SHADER_VERTEX_func0_main_0 thread block = 176,0,0
MESA_SHADER_VERTEX_func0_main_0 thread block = 177,0,0
MESA_SHADER_VERTEX_func0_main_0 thread block = 178,0,0
MESA_SHADER_VERTEX_func0_main_0 thread block = 179,0,0
MESA_SHADER_VERTEX_func0_main_0 thread block = 180,0,0
MESA_SHADER_VERTEX_func0_main_0 thread block = 181,0,0
MESA_SHADER_VERTEX_func0_main_0 thread block = 182,0,0
MESA_SHADER_VERTEX_func0_main_0 thread block = 183,0,0
MESA_SHADER_VERTEX_func0_main_0 thread block = 184,0,0
MESA_SHADER_VERTEX_func0_main_0 thread block = 185,0,0
MESA_SHADER_VERTEX_func0_main_0 thread block = 186,0,0
MESA_SHADER_VERTEX_func0_main_0 thread block = 187,0,0
MESA_SHADER_VERTEX_func0_main_0 thread block = 188,0,0
MESA_SHADER_VERTEX_func0_main_0 thread block = 189,0,0
MESA_SHADER_VERTEX_func0_main_0 thread block = 190,0,0
MESA_SHADER_VERTEX_func0_main_0 thread block = 191,0,0
MESA_SHADER_VERTEX_func0_main_0 thread block = 192,0,0
MESA_SHADER_VERTEX_func0_main_0 thread block = 193,0,0
MESA_SHADER_VERTEX_func0_main_0 thread block = 194,0,0
MESA_SHADER_VERTEX_func0_main_0 thread block = 195,0,0
MESA_SHADER_VERTEX_func0_main_0 thread block = 196,0,0
MESA_SHADER_VERTEX_func0_main_0 thread block = 197,0,0
MESA_SHADER_VERTEX_func0_main_0 thread block = 198,0,0
MESA_SHADER_VERTEX_func0_main_0 thread block = 199,0,0
MESA_SHADER_VERTEX_func0_main_0 thread block = 200,0,0
MESA_SHADER_VERTEX_func0_main_0 thread block = 201,0,0
MESA_SHADER_VERTEX_func0_main_0 thread block = 202,0,0
MESA_SHADER_VERTEX_func0_main_0 thread block = 203,0,0
MESA_SHADER_VERTEX_func0_main_0 thread block = 204,0,0
MESA_SHADER_VERTEX_func0_main_0 thread block = 205,0,0
MESA_SHADER_VERTEX_func0_main_0 thread block = 206,0,0
MESA_SHADER_VERTEX_func0_main_0 thread block = 207,0,0
MESA_SHADER_VERTEX_func0_main_0 thread block = 208,0,0
MESA_SHADER_VERTEX_func0_main_0 thread block = 209,0,0
MESA_SHADER_VERTEX_func0_main_0 thread block = 210,0,0
MESA_SHADER_VERTEX_func0_main_0 thread block = 211,0,0
MESA_SHADER_VERTEX_func0_main_0 thread block = 212,0,0
MESA_SHADER_VERTEX_func0_main_0 thread block = 213,0,0
MESA_SHADER_VERTEX_func0_main_0 thread block = 214,0,0
MESA_SHADER_VERTEX_func0_main_0 thread block = 215,0,0
MESA_SHADER_VERTEX_func0_main_0 thread block = 216,0,0
MESA_SHADER_VERTEX_func0_main_0 thread block = 217,0,0
MESA_SHADER_VERTEX_func0_main_0 thread block = 218,0,0
MESA_SHADER_VERTEX_func0_main_0 thread block = 219,0,0
MESA_SHADER_VERTEX_func0_main_0 thread block = 220,0,0
MESA_SHADER_VERTEX_func0_main_0 thread block = 221,0,0
MESA_SHADER_VERTEX_func0_main_0 thread block = 222,0,0
MESA_SHADER_VERTEX_func0_main_0 thread block = 223,0,0
MESA_SHADER_VERTEX_func0_main_0 thread block = 224,0,0
MESA_SHADER_VERTEX_func0_main_0 thread block = 225,0,0
MESA_SHADER_VERTEX_func0_main_0 thread block = 226,0,0
MESA_SHADER_VERTEX_func0_main_0 thread block = 227,0,0
MESA_SHADER_VERTEX_func0_main_0 thread block = 228,0,0
MESA_SHADER_VERTEX_func0_main_0 thread block = 229,0,0
MESA_SHADER_VERTEX_func0_main_0 thread block = 230,0,0
MESA_SHADER_VERTEX_func0_main_0 thread block = 231,0,0
MESA_SHADER_VERTEX_func0_main_0 thread block = 232,0,0
MESA_SHADER_VERTEX_func0_main_0 thread block = 233,0,0
MESA_SHADER_VERTEX_func0_main_0 thread block = 234,0,0
MESA_SHADER_VERTEX_func0_main_0 thread block = 235,0,0
MESA_SHADER_VERTEX_func0_main_0 thread block = 236,0,0
MESA_SHADER_VERTEX_func0_main_0 thread block = 237,0,0
MESA_SHADER_VERTEX_func0_main_0 thread block = 238,0,0
MESA_SHADER_VERTEX_func0_main_0 thread block = 239,0,0
MESA_SHADER_VERTEX_func0_main_0 thread block = 240,0,0
MESA_SHADER_VERTEX_func0_main_0 thread block = 241,0,0
MESA_SHADER_VERTEX_func0_main_0 thread block = 242,0,0
MESA_SHADER_VERTEX_func0_main_0 thread block = 243,0,0
MESA_SHADER_VERTEX_func0_main_0 thread block = 244,0,0
MESA_SHADER_VERTEX_func0_main_0 thread block = 245,0,0
MESA_SHADER_VERTEX_func0_main_0 thread block = 246,0,0
MESA_SHADER_VERTEX_func0_main_0 thread block = 247,0,0
MESA_SHADER_VERTEX_func0_main_0 thread block = 248,0,0
MESA_SHADER_VERTEX_func0_main_0 thread block = 249,0,0
MESA_SHADER_VERTEX_func0_main_0 thread block = 250,0,0
MESA_SHADER_VERTEX_func0_main_0 thread block = 251,0,0
MESA_SHADER_VERTEX_func0_main_0 thread block = 252,0,0
MESA_SHADER_VERTEX_func0_main_0 thread block = 253,0,0
MESA_SHADER_VERTEX_func0_main_0 thread block = 254,0,0
MESA_SHADER_VERTEX_func0_main_0 thread block = 255,0,0
GPGPU-Sim: Reconfigure L1 cache to 192KB
GPGPU-Sim: Reconfigure L1 cache to 192KB
GPGPU-Sim: Reconfigure L1 cache to 192KB
GPGPU-Sim: Reconfigure L1 cache to 192KB
GPGPU-Sim: Reconfigure L1 cache to 192KB
GPGPU-Sim: Reconfigure L1 cache to 192KB
GPGPU-Sim: Reconfigure L1 cache to 192KB
GPGPU-Sim: Reconfigure L1 cache to 192KB
GPGPU-Sim: Reconfigure L1 cache to 192KB
GPGPU-Sim: Reconfigure L1 cache to 192KB
GPGPU-Sim: Reconfigure L1 cache to 192KB
GPGPU-Sim: Reconfigure L1 cache to 192KB
GPGPU-Sim: Reconfigure L1 cache to 192KB
GPGPU-Sim: Reconfigure L1 cache to 192KB
GPGPU-Sim: Reconfigure L1 cache to 192KB
GPGPU-Sim: Reconfigure L1 cache to 192KB
GPGPU-Sim: Reconfigure L1 cache to 192KB
GPGPU-Sim: Reconfigure L1 cache to 192KB
GPGPU-Sim: Reconfigure L1 cache to 192KB
GPGPU-Sim: Reconfigure L1 cache to 192KB
GPGPU-Sim: Reconfigure L1 cache to 192KB
GPGPU-Sim: Reconfigure L1 cache to 192KB
GPGPU-Sim: Reconfigure L1 cache to 192KB
MESA_SHADER_VERTEX_func0_main_0 thread block = 256,0,0
MESA_SHADER_VERTEX_func0_main_0 thread block = 257,0,0
MESA_SHADER_VERTEX_func0_main_0 thread block = 258,0,0
MESA_SHADER_VERTEX_func0_main_0 thread block = 259,0,0
MESA_SHADER_VERTEX_func0_main_0 thread block = 260,0,0
MESA_SHADER_VERTEX_func0_main_0 thread block = 261,0,0
MESA_SHADER_VERTEX_func0_main_0 thread block = 262,0,0
MESA_SHADER_VERTEX_func0_main_0 thread block = 263,0,0
MESA_SHADER_VERTEX_func0_main_0 thread block = 264,0,0
MESA_SHADER_VERTEX_func0_main_0 thread block = 265,0,0
MESA_SHADER_VERTEX_func0_main_0 thread block = 266,0,0
MESA_SHADER_VERTEX_func0_main_0 thread block = 267,0,0
MESA_SHADER_VERTEX_func0_main_0 thread block = 268,0,0
MESA_SHADER_VERTEX_func0_main_0 thread block = 269,0,0
MESA_SHADER_VERTEX_func0_main_0 thread block = 270,0,0
MESA_SHADER_VERTEX_func0_main_0 thread block = 271,0,0
MESA_SHADER_VERTEX_func0_main_0 thread block = 272,0,0
MESA_SHADER_VERTEX_func0_main_0 thread block = 273,0,0
MESA_SHADER_VERTEX_func0_main_0 thread block = 274,0,0
MESA_SHADER_VERTEX_func0_main_0 thread block = 275,0,0
MESA_SHADER_VERTEX_func0_main_0 thread block = 276,0,0
MESA_SHADER_VERTEX_func0_main_0 thread block = 277,0,0
MESA_SHADER_VERTEX_func0_main_0 thread block = 278,0,0
MESA_SHADER_VERTEX_func0_main_0 thread block = 279,0,0
MESA_SHADER_VERTEX_func0_main_0 thread block = 280,0,0
MESA_SHADER_VERTEX_func0_main_0 thread block = 281,0,0
MESA_SHADER_VERTEX_func0_main_0 thread block = 282,0,0
MESA_SHADER_VERTEX_func0_main_0 thread block = 283,0,0
MESA_SHADER_VERTEX_func0_main_0 thread block = 284,0,0
MESA_SHADER_VERTEX_func0_main_0 thread block = 285,0,0
MESA_SHADER_VERTEX_func0_main_0 thread block = 286,0,0
MESA_SHADER_VERTEX_func0_main_0 thread block = 287,0,0
MESA_SHADER_VERTEX_func0_main_0 thread block = 288,0,0
MESA_SHADER_VERTEX_func0_main_0 thread block = 289,0,0
MESA_SHADER_VERTEX_func0_main_0 thread block = 290,0,0
MESA_SHADER_VERTEX_func0_main_0 thread block = 291,0,0
MESA_SHADER_VERTEX_func0_main_0 thread block = 292,0,0
MESA_SHADER_VERTEX_func0_main_0 thread block = 293,0,0
MESA_SHADER_VERTEX_func0_main_0 thread block = 294,0,0
MESA_SHADER_VERTEX_func0_main_0 thread block = 295,0,0
MESA_SHADER_VERTEX_func0_main_0 thread block = 296,0,0
MESA_SHADER_VERTEX_func0_main_0 thread block = 297,0,0
MESA_SHADER_VERTEX_func0_main_0 thread block = 298,0,0
MESA_SHADER_VERTEX_func0_main_0 thread block = 299,0,0
MESA_SHADER_VERTEX_func0_main_0 thread block = 300,0,0
MESA_SHADER_VERTEX_func0_main_0 thread block = 301,0,0
MESA_SHADER_VERTEX_func0_main_0 thread block = 302,0,0
MESA_SHADER_VERTEX_func0_main_0 thread block = 303,0,0
MESA_SHADER_VERTEX_func0_main_0 thread block = 304,0,0
MESA_SHADER_VERTEX_func0_main_0 thread block = 305,0,0
MESA_SHADER_VERTEX_func0_main_0 thread block = 306,0,0
MESA_SHADER_VERTEX_func0_main_0 thread block = 307,0,0
MESA_SHADER_VERTEX_func0_main_0 thread block = 308,0,0
MESA_SHADER_VERTEX_func0_main_0 thread block = 309,0,0
MESA_SHADER_VERTEX_func0_main_0 thread block = 310,0,0
MESA_SHADER_VERTEX_func0_main_0 thread block = 311,0,0
MESA_SHADER_VERTEX_func0_main_0 thread block = 312,0,0
MESA_SHADER_VERTEX_func0_main_0 thread block = 313,0,0
MESA_SHADER_VERTEX_func0_main_0 thread block = 314,0,0
MESA_SHADER_VERTEX_func0_main_0 thread block = 315,0,0
MESA_SHADER_VERTEX_func0_main_0 thread block = 316,0,0
MESA_SHADER_VERTEX_func0_main_0 thread block = 317,0,0
MESA_SHADER_VERTEX_func0_main_0 thread block = 318,0,0
MESA_SHADER_VERTEX_func0_main_0 thread block = 319,0,0
MESA_SHADER_VERTEX_func0_main_0 thread block = 320,0,0
MESA_SHADER_VERTEX_func0_main_2 thread block = 0,0,0
MESA_SHADER_VERTEX_func0_main_2 thread block = 1,0,0
MESA_SHADER_VERTEX_func0_main_2 thread block = 2,0,0
MESA_SHADER_VERTEX_func0_main_2 thread block = 3,0,0
MESA_SHADER_VERTEX_func0_main_2 thread block = 4,0,0
MESA_SHADER_VERTEX_func0_main_2 thread block = 5,0,0
MESA_SHADER_VERTEX_func0_main_2 thread block = 6,0,0
MESA_SHADER_VERTEX_func0_main_2 thread block = 7,0,0
MESA_SHADER_VERTEX_func0_main_2 thread block = 8,0,0
MESA_SHADER_VERTEX_func0_main_2 thread block = 9,0,0
MESA_SHADER_VERTEX_func0_main_2 thread block = 10,0,0
MESA_SHADER_VERTEX_func0_main_2 thread block = 11,0,0
MESA_SHADER_VERTEX_func0_main_2 thread block = 12,0,0
MESA_SHADER_VERTEX_func0_main_2 thread block = 13,0,0
MESA_SHADER_VERTEX_func0_main_2 thread block = 14,0,0
MESA_SHADER_VERTEX_func0_main_2 thread block = 15,0,0
MESA_SHADER_VERTEX_func0_main_2 thread block = 16,0,0
MESA_SHADER_VERTEX_func0_main_2 thread block = 17,0,0
MESA_SHADER_VERTEX_func0_main_2 thread block = 18,0,0
MESA_SHADER_VERTEX_func0_main_2 thread block = 19,0,0
MESA_SHADER_VERTEX_func0_main_2 thread block = 20,0,0
MESA_SHADER_VERTEX_func0_main_2 thread block = 21,0,0
MESA_SHADER_VERTEX_func0_main_2 thread block = 22,0,0
MESA_SHADER_VERTEX_func0_main_2 thread block = 23,0,0
MESA_SHADER_VERTEX_func0_main_2 thread block = 24,0,0
MESA_SHADER_VERTEX_func0_main_2 thread block = 25,0,0
MESA_SHADER_VERTEX_func0_main_2 thread block = 26,0,0
MESA_SHADER_VERTEX_func0_main_2 thread block = 27,0,0
MESA_SHADER_VERTEX_func0_main_2 thread block = 28,0,0
MESA_SHADER_VERTEX_func0_main_2 thread block = 29,0,0
MESA_SHADER_VERTEX_func0_main_2 thread block = 30,0,0
MESA_SHADER_VERTEX_func0_main_2 thread block = 31,0,0
MESA_SHADER_VERTEX_func0_main_2 thread block = 32,0,0
MESA_SHADER_VERTEX_func0_main_2 thread block = 33,0,0
MESA_SHADER_VERTEX_func0_main_2 thread block = 34,0,0
MESA_SHADER_VERTEX_func0_main_2 thread block = 35,0,0
MESA_SHADER_VERTEX_func0_main_2 thread block = 36,0,0
MESA_SHADER_VERTEX_func0_main_2 thread block = 37,0,0
MESA_SHADER_VERTEX_func0_main_2 thread block = 38,0,0
MESA_SHADER_VERTEX_func0_main_2 thread block = 39,0,0
MESA_SHADER_VERTEX_func0_main_2 thread block = 40,0,0
MESA_SHADER_VERTEX_func0_main_2 thread block = 41,0,0
MESA_SHADER_VERTEX_func0_main_2 thread block = 42,0,0
MESA_SHADER_VERTEX_func0_main_2 thread block = 43,0,0
MESA_SHADER_VERTEX_func0_main_2 thread block = 44,0,0
MESA_SHADER_VERTEX_func0_main_2 thread block = 45,0,0
MESA_SHADER_VERTEX_func0_main_2 thread block = 46,0,0
MESA_SHADER_VERTEX_func0_main_2 thread block = 47,0,0
MESA_SHADER_VERTEX_func0_main_2 thread block = 48,0,0
MESA_SHADER_VERTEX_func0_main_2 thread block = 49,0,0
MESA_SHADER_VERTEX_func0_main_2 thread block = 50,0,0
MESA_SHADER_VERTEX_func0_main_2 thread block = 51,0,0
MESA_SHADER_VERTEX_func0_main_2 thread block = 52,0,0
MESA_SHADER_VERTEX_func0_main_2 thread block = 53,0,0
MESA_SHADER_VERTEX_func0_main_2 thread block = 54,0,0
MESA_SHADER_VERTEX_func0_main_2 thread block = 55,0,0
MESA_SHADER_VERTEX_func0_main_2 thread block = 56,0,0
MESA_SHADER_VERTEX_func0_main_2 thread block = 57,0,0
MESA_SHADER_VERTEX_func0_main_2 thread block = 58,0,0
MESA_SHADER_VERTEX_func0_main_2 thread block = 59,0,0
MESA_SHADER_VERTEX_func0_main_4 thread block = 0,0,0
MESA_SHADER_VERTEX_func0_main_4 thread block = 1,0,0
MESA_SHADER_VERTEX_func0_main_4 thread block = 2,0,0
MESA_SHADER_VERTEX_func0_main_4 thread block = 3,0,0
MESA_SHADER_VERTEX_func0_main_4 thread block = 4,0,0
MESA_SHADER_VERTEX_func0_main_4 thread block = 5,0,0
MESA_SHADER_VERTEX_func0_main_4 thread block = 6,0,0
MESA_SHADER_VERTEX_func0_main_4 thread block = 7,0,0
MESA_SHADER_VERTEX_func0_main_4 thread block = 8,0,0
MESA_SHADER_VERTEX_func0_main_4 thread block = 9,0,0
MESA_SHADER_VERTEX_func0_main_4 thread block = 10,0,0
MESA_SHADER_VERTEX_func0_main_4 thread block = 11,0,0
MESA_SHADER_VERTEX_func0_main_4 thread block = 12,0,0
MESA_SHADER_VERTEX_func0_main_4 thread block = 13,0,0
MESA_SHADER_VERTEX_func0_main_4 thread block = 14,0,0
MESA_SHADER_VERTEX_func0_main_4 thread block = 15,0,0
MESA_SHADER_VERTEX_func0_main_4 thread block = 16,0,0
MESA_SHADER_VERTEX_func0_main_4 thread block = 17,0,0
MESA_SHADER_VERTEX_func0_main_4 thread block = 18,0,0
MESA_SHADER_VERTEX_func0_main_4 thread block = 19,0,0
MESA_SHADER_VERTEX_func0_main_4 thread block = 20,0,0
MESA_SHADER_VERTEX_func0_main_4 thread block = 21,0,0
MESA_SHADER_VERTEX_func0_main_4 thread block = 22,0,0
MESA_SHADER_VERTEX_func0_main_4 thread block = 23,0,0
MESA_SHADER_VERTEX_func0_main_4 thread block = 24,0,0
MESA_SHADER_VERTEX_func0_main_4 thread block = 25,0,0
MESA_SHADER_VERTEX_func0_main_4 thread block = 26,0,0
MESA_SHADER_VERTEX_func0_main_4 thread block = 27,0,0
MESA_SHADER_VERTEX_func0_main_4 thread block = 28,0,0
MESA_SHADER_VERTEX_func0_main_4 thread block = 29,0,0
MESA_SHADER_VERTEX_func0_main_4 thread block = 30,0,0
MESA_SHADER_VERTEX_func0_main_4 thread block = 31,0,0
MESA_SHADER_VERTEX_func0_main_4 thread block = 32,0,0
MESA_SHADER_VERTEX_func0_main_4 thread block = 33,0,0
MESA_SHADER_VERTEX_func0_main_4 thread block = 34,0,0
MESA_SHADER_VERTEX_func0_main_4 thread block = 35,0,0
MESA_SHADER_VERTEX_func0_main_4 thread block = 36,0,0
MESA_SHADER_VERTEX_func0_main_4 thread block = 37,0,0
MESA_SHADER_VERTEX_func0_main_4 thread block = 38,0,0
MESA_SHADER_VERTEX_func0_main_4 thread block = 39,0,0
MESA_SHADER_VERTEX_func0_main_4 thread block = 40,0,0
MESA_SHADER_VERTEX_func0_main_4 thread block = 41,0,0
MESA_SHADER_VERTEX_func0_main_4 thread block = 42,0,0
MESA_SHADER_VERTEX_func0_main_4 thread block = 43,0,0
MESA_SHADER_VERTEX_func0_main_4 thread block = 44,0,0
MESA_SHADER_VERTEX_func0_main_4 thread block = 45,0,0
MESA_SHADER_VERTEX_func0_main_4 thread block = 46,0,0
MESA_SHADER_VERTEX_func0_main_4 thread block = 47,0,0
MESA_SHADER_VERTEX_func0_main_4 thread block = 48,0,0
MESA_SHADER_VERTEX_func0_main_4 thread block = 49,0,0
MESA_SHADER_VERTEX_func0_main_4 thread block = 50,0,0
MESA_SHADER_VERTEX_func0_main_4 thread block = 51,0,0
MESA_SHADER_VERTEX_func0_main_4 thread block = 52,0,0
MESA_SHADER_VERTEX_func0_main_4 thread block = 53,0,0
MESA_SHADER_VERTEX_func0_main_4 thread block = 54,0,0
MESA_SHADER_VERTEX_func0_main_4 thread block = 55,0,0
MESA_SHADER_VERTEX_func0_main_4 thread block = 56,0,0
MESA_SHADER_VERTEX_func0_main_4 thread block = 57,0,0
MESA_SHADER_VERTEX_func0_main_4 thread block = 58,0,0
[...]
Req_Network_injected_packets_num = 177081
Req_Network_cycles = 22277
Req_Network_injected_packets_per_cycle =       7.9491 
Req_Network_conflicts_per_cycle =       1.7707
Req_Network_conflicts_per_cycle_util =       2.4178
Req_Bank_Level_Parallism =      10.8531
Req_Network_in_buffer_full_per_cycle =       0.0000
Req_Network_in_buffer_avg_util =       6.5883
Req_Network_out_buffer_full_per_cycle =       0.0000
Req_Network_out_buffer_avg_util =       0.3413

Reply_Network_injected_packets_num = 175855
Reply_Network_cycles = 22277
Reply_Network_injected_packets_per_cycle =        7.8940
Reply_Network_conflicts_per_cycle =       13.0230
Reply_Network_conflicts_per_cycle_util =      17.8005
Reply_Bank_Level_Parallism =      10.1785
Reply_Network_in_buffer_full_per_cycle =       0.2628
Reply_Network_in_buffer_avg_util =      95.9960
Reply_Network_out_buffer_full_per_cycle =       0.0000
Reply_Network_out_buffer_avg_util =       0.4654
----------------------------END-of-Interconnect-DETAILS-------------------------


gpgpu_simulation_time = 0 days, 0 hrs, 1 min, 49 sec (109 sec)
gpgpu_simulation_rate = 74978 (inst/sec)
gpgpu_simulation_rate = 204 (cycle/sec)
gpgpu_silicon_slowdown = 6372549x
launching kernel name: MESA_SHADER_FRAGMENT_func1_main uid: 4
GPGPU-Sim: Reconfigure L1 cache to 192KB
STEP1 - kernel 1 finished, cycle: 22332, last frame: 0
kernel_name = MESA_SHADER_VERTEX_func0_main-1
kernel_launch_uid = 1
gpu_sim_cycle = 22332
gpu_sim_insn = 4437504
gpu_ipc =     198.7061
gpu_tot_sim_cycle = 22334
gpu_tot_sim_insn = 8194976
gpu_tot_ipc =     366.9283
gpu_tot_issued_cta = 731
gpu_occupancy = 62.3195% 
gpu_tot_occupancy = 62.4606% 
max_total_param_size = 0
gpu_stall_dramfull = 1250
gpu_stall_icnt2sh    = 5855
partiton_level_parallism =       0.0172
partiton_level_parallism_total  =       7.9449
partiton_level_parallism_util =       6.7193
partiton_level_parallism_util_total  =      10.8348
L2_BW  =     184.1785 GB/Sec
L2_BW_total  =     328.5104 GB/Sec
gpu_total_sim_rate=74499

========= Core cache stats =========
L1I_cache:
	L1I_total_cache_accesses = 0
	L1I_total_cache_misses = 0
	L1I_total_cache_pending_hits = 0
	L1I_total_cache_reservation_fails = 0
L1D_cache:
	L1D_cache_core[0]: Access = 9800, Miss = 2790, Miss_rate = 0.285, Pending_hits = 2584, Reservation_fails = 10037
	L1D_cache_core[1]: Access = 10830, Miss = 3020, Miss_rate = 0.279, Pending_hits = 2719, Reservation_fails = 9889
	L1D_cache_core[2]: Access = 10516, Miss = 2914, Miss_rate = 0.277, Pending_hits = 2795, Reservation_fails = 10197
	L1D_cache_core[3]: Access = 9388, Miss = 2713, Miss_rate = 0.289, Pending_hits = 2476, Reservation_fails = 9152
	L1D_cache_core[4]: Access = 10832, Miss = 3024, Miss_rate = 0.279, Pending_hits = 2925, Reservation_fails = 9644
	L1D_cache_core[5]: Access = 11678, Miss = 3340, Miss_rate = 0.286, Pending_hits = 3032, Reservation_fails = 10680
	L1D_cache_core[6]: Access = 8780, Miss = 2468, Miss_rate = 0.281, Pending_hits = 2294, Reservation_fails = 8844
	L1D_cache_core[7]: Access = 10400, Miss = 2926, Miss_rate = 0.281, Pending_hits = 2633, Reservation_fails = 10938
	L1D_cache_core[8]: Access = 11780, Miss = 3327, Miss_rate = 0.282, Pending_hits = 3137, Reservation_fails = 11208
	L1D_cache_core[9]: Access = 10230, Miss = 2963, Miss_rate = 0.290, Pending_hits = 2624, Reservation_fails = 10345
	L1D_cache_core[10]: Access = 10912, Miss = 3112, Miss_rate = 0.285, Pending_hits = 2810, Reservation_fails = 10574
	L1D_cache_core[11]: Access = 9850, Miss = 2826, Miss_rate = 0.287, Pending_hits = 2539, Reservation_fails = 9969
	L1D_cache_core[12]: Access = 10570, Miss = 3032, Miss_rate = 0.287, Pending_hits = 2820, Reservation_fails = 9287
	L1D_cache_core[13]: Access = 11262, Miss = 3246, Miss_rate = 0.288, Pending_hits = 2930, Reservation_fails = 10856
	L1D_cache_core[14]: Access = 10606, Miss = 3028, Miss_rate = 0.285, Pending_hits = 2793, Reservation_fails = 10009
	L1D_cache_core[15]: Access = 10038, Miss = 2837, Miss_rate = 0.283, Pending_hits = 2629, Reservation_fails = 9723
	L1D_total_cache_accesses = 167472
	L1D_total_cache_misses = 47566
	L1D_total_cache_miss_rate = 0.2840
	L1D_total_cache_pending_hits = 43740
	L1D_total_cache_reservation_fails = 161352
	L1D_cache_data_port_util = 0.475
	L1D_cache_fill_port_util = 0.170
L1C_cache:
	L1C_total_cache_accesses = 0
	L1C_total_cache_misses = 0
	L1C_total_cache_pending_hits = 0
	L1C_total_cache_reservation_fails = 0
L1T_cache:
	L1T_total_cache_accesses = 0
	L1T_total_cache_misses = 0
	L1T_total_cache_pending_hits = 0
	L1T_total_cache_reservation_fails = 0

Total_core_cache_stats:
	Total_core_cache_stats_breakdown[GLOBAL_ACC_R][HIT] = 24860
	Total_core_cache_stats_breakdown[GLOBAL_ACC_R][HIT_RESERVED] = 43740
	Total_core_cache_stats_breakdown[GLOBAL_ACC_R][MISS] = 7628
	Total_core_cache_stats_breakdown[GLOBAL_ACC_R][RESERVATION_FAIL] = 69534
	Total_core_cache_stats_breakdown[GLOBAL_ACC_R][SECTOR_MISS] = 16853
	Total_core_cache_stats_breakdown[GLOBAL_ACC_R][MSHR_HIT] = 43740
	Total_core_cache_stats_breakdown[LOCAL_ACC_R][HIT] = 0
	Total_core_cache_stats_breakdown[LOCAL_ACC_R][HIT_RESERVED] = 0
	Total_core_cache_stats_breakdown[LOCAL_ACC_R][MISS] = 0
	Total_core_cache_stats_breakdown[LOCAL_ACC_R][RESERVATION_FAIL] = 0
	Total_core_cache_stats_breakdown[LOCAL_ACC_R][SECTOR_MISS] = 0
	Total_core_cache_stats_breakdown[LOCAL_ACC_R][MSHR_HIT] = 0
	Total_core_cache_stats_breakdown[CONST_ACC_R][HIT] = 0
	Total_core_cache_stats_breakdown[CONST_ACC_R][HIT_RESERVED] = 0
	Total_core_cache_stats_breakdown[CONST_ACC_R][MISS] = 0
	Total_core_cache_stats_breakdown[CONST_ACC_R][RESERVATION_FAIL] = 0
	Total_core_cache_stats_breakdown[CONST_ACC_R][SECTOR_MISS] = 0
	Total_core_cache_stats_breakdown[CONST_ACC_R][MSHR_HIT] = 0
	Total_core_cache_stats_breakdown[TEXTURE_ACC_R][HIT] = 0
	Total_core_cache_stats_breakdown[TEXTURE_ACC_R][HIT_RESERVED] = 0
	Total_core_cache_stats_breakdown[TEXTURE_ACC_R][MISS] = 0
	Total_core_cache_stats_breakdown[TEXTURE_ACC_R][RESERVATION_FAIL] = 0
	Total_core_cache_stats_breakdown[TEXTURE_ACC_R][SECTOR_MISS] = 0
	Total_core_cache_stats_breakdown[TEXTURE_ACC_R][MSHR_HIT] = 0
	Total_core_cache_stats_breakdown[GLOBAL_ACC_W][HIT] = 51306
	Total_core_cache_stats_breakdown[GLOBAL_ACC_W][HIT_RESERVED] = 0
	Total_core_cache_stats_breakdown[GLOBAL_ACC_W][MISS] = 5772
	Total_core_cache_stats_breakdown[GLOBAL_ACC_W][RESERVATION_FAIL] = 91818
	Total_core_cache_stats_breakdown[GLOBAL_ACC_W][SECTOR_MISS] = 17313
	Total_core_cache_stats_breakdown[GLOBAL_ACC_W][MSHR_HIT] = 0
	Total_core_cache_stats_breakdown[LOCAL_ACC_W][HIT] = 0
	Total_core_cache_stats_breakdown[LOCAL_ACC_W][HIT_RESERVED] = 0
	Total_core_cache_stats_breakdown[LOCAL_ACC_W][MISS] = 0
	Total_core_cache_stats_breakdown[LOCAL_ACC_W][RESERVATION_FAIL] = 0
	Total_core_cache_stats_breakdown[LOCAL_ACC_W][SECTOR_MISS] = 0
	Total_core_cache_stats_breakdown[LOCAL_ACC_W][MSHR_HIT] = 0
	Total_core_cache_stats_breakdown[L1_WRBK_ACC][HIT] = 0
	Total_core_cache_stats_breakdown[L1_WRBK_ACC][HIT_RESERVED] = 0
	Total_core_cache_stats_breakdown[L1_WRBK_ACC][MISS] = 0
	Total_core_cache_stats_breakdown[L1_WRBK_ACC][RESERVATION_FAIL] = 0
	Total_core_cache_stats_breakdown[L1_WRBK_ACC][SECTOR_MISS] = 0
	Total_core_cache_stats_breakdown[L1_WRBK_ACC][MSHR_HIT] = 0
	Total_core_cache_stats_breakdown[L2_WRBK_ACC][HIT] = 0
	Total_core_cache_stats_breakdown[L2_WRBK_ACC][HIT_RESERVED] = 0
	Total_core_cache_stats_breakdown[L2_WRBK_ACC][MISS] = 0
	Total_core_cache_stats_breakdown[L2_WRBK_ACC][RESERVATION_FAIL] = 0
	Total_core_cache_stats_breakdown[L2_WRBK_ACC][SECTOR_MISS] = 0
	Total_core_cache_stats_breakdown[L2_WRBK_ACC][MSHR_HIT] = 0
	Total_core_cache_stats_breakdown[INST_ACC_R][HIT] = 0
	Total_core_cache_stats_breakdown[INST_ACC_R][HIT_RESERVED] = 0
	Total_core_cache_stats_breakdown[INST_ACC_R][MISS] = 0
	Total_core_cache_stats_breakdown[INST_ACC_R][RESERVATION_FAIL] = 0
	Total_core_cache_stats_breakdown[INST_ACC_R][SECTOR_MISS] = 0
	Total_core_cache_stats_breakdown[INST_ACC_R][MSHR_HIT] = 0
	Total_core_cache_stats_breakdown[L1_WR_ALLOC_R][HIT] = 0
	Total_core_cache_stats_breakdown[L1_WR_ALLOC_R][HIT_RESERVED] = 0
	Total_core_cache_stats_breakdown[L1_WR_ALLOC_R][MISS] = 0
	Total_core_cache_stats_breakdown[L1_WR_ALLOC_R][RESERVATION_FAIL] = 0
	Total_core_cache_stats_breakdown[L1_WR_ALLOC_R][SECTOR_MISS] = 0
	Total_core_cache_stats_breakdown[L1_WR_ALLOC_R][MSHR_HIT] = 0
	Total_core_cache_stats_breakdown[L2_WR_ALLOC_R][HIT] = 0
	Total_core_cache_stats_breakdown[L2_WR_ALLOC_R][HIT_RESERVED] = 0
	Total_core_cache_stats_breakdown[L2_WR_ALLOC_R][MISS] = 0
	Total_core_cache_stats_breakdown[L2_WR_ALLOC_R][RESERVATION_FAIL] = 0
	Total_core_cache_stats_breakdown[L2_WR_ALLOC_R][SECTOR_MISS] = 0
	Total_core_cache_stats_breakdown[L2_WR_ALLOC_R][MSHR_HIT] = 0
	Total_core_cache_stats_breakdown[GLOBAL_ACC_R][TOTAL_ACCESS] = 93081
	Total_core_cache_stats_breakdown[GLOBAL_ACC_W][TOTAL_ACCESS] = 74391

Total_core_cache_fail_stats:
	Total_core_cache_fail_stats_breakdown[GLOBAL_ACC_R][MISS_QUEUE_FULL] = 22258
	Total_core_cache_fail_stats_breakdown[GLOBAL_ACC_R][MSHR_ENRTY_FAIL] = 45536
	Total_core_cache_fail_stats_breakdown[GLOBAL_ACC_R][MSHR_MERGE_ENRTY_FAIL] = 1740
	Total_core_cache_fail_stats_breakdown[GLOBAL_ACC_W][MISS_QUEUE_FULL] = 91818
ctas_completed 25, Shader 0 warp_id issue ditsribution:
warp_id:
0, 1, 2, 3, 4, 5, 6, 7, 8, 9, 10, 11, 12, 13, 14, 15, 16, 17, 18, 19, 20, 21, 22, 23, 24, 25, 26, 27, 28, 29, 30, 31, 
distro:
432, 432, 518, 518, 432, 432, 487, 487, 648, 648, 648, 648, 648, 648, 487, 487, 487, 487, 487, 487, 432, 432, 487, 487, 487, 487, 432, 432, 432, 432, 432, 432, 
gpgpu_n_tot_thrd_icount = 8194976
gpgpu_n_tot_w_icount = 256093
gpgpu_n_stall_shd_mem = 166524
gpgpu_n_mem_read_local = 0
gpgpu_n_mem_write_local = 0
gpgpu_n_mem_read_global = 52393
gpgpu_n_mem_write_global = 125065
gpgpu_n_mem_texture = 0
gpgpu_n_mem_const = 0
gpgpu_n_load_insn  = 1615808
gpgpu_n_store_insn = 312096
gpgpu_n_shmem_insn = 0
gpgpu_n_sstarr_insn = 0
gpgpu_n_tex_insn = 0
gpgpu_n_const_mem_insn = 0
gpgpu_n_param_mem_insn = 0
gpgpu_n_shmem_bkconflict = 0
gpgpu_n_cache_bkconflict = 0
gpgpu_n_intrawarp_mshr_merge = 0
gpgpu_n_cmem_portconflict = 0
gpgpu_stall_shd_mem[c_mem][resource_stall] = 0
gpgpu_stall_shd_mem[s_mem][bk_conf] = 0
gpgpu_stall_shd_mem[gl_mem][resource_stall] = 123158
gpgpu_stall_shd_mem[gl_mem][coal_stall] = 43366
gpgpu_stall_shd_mem[gl_mem][data_port_stall] = 0
gpu_reg_bank_conflict_stalls = 0
Warp Occupancy Distribution:
Stall:665176	W0_Idle:1334	W0_Scoreboard:185335	W1:0	W2:0	W3:0	W4:0	W5:0	W6:0	W7:0	W8:0	W9:0	W10:0	W11:0	W12:0	W13:0	W14:0	W15:0	W16:0	W17:0	W18:0	W19:0	W20:0	W21:0	W22:0	W23:0	W24:0	W25:0	W26:0	W27:0	W28:0	W29:0	W30:0	W31:0	W32:257467
single_issue_nums: WS0:64043	WS1:64357	WS2:64508	WS3:64559	
dual_issue_nums: WS0:0	WS1:0	WS2:0	WS3:0	
traffic_breakdown_coretomem[GLOBAL_ACC_R] = 419144 {8:52393,}
traffic_breakdown_coretomem[GLOBAL_ACC_W] = 5002600 {40:125065,}
traffic_breakdown_memtocore[GLOBAL_ACC_R] = 1883320 {40:47083,}
traffic_breakdown_memtocore[GLOBAL_ACC_W] = 955816 {8:119477,}

========= L2 cache stats =========
L2_cache_bank[0]: Access = 3090, Miss = 0, Miss_rate = 0.000, Pending_hits = 0, Reservation_fails = 0
L2_cache_bank[1]: Access = 3076, Miss = 0, Miss_rate = 0.000, Pending_hits = 0, Reservation_fails = 0
L2_cache_bank[2]: Access = 3088, Miss = 0, Miss_rate = 0.000, Pending_hits = 0, Reservation_fails = 0
L2_cache_bank[3]: Access = 3098, Miss = 0, Miss_rate = 0.000, Pending_hits = 0, Reservation_fails = 0
L2_cache_bank[4]: Access = 3103, Miss = 0, Miss_rate = 0.000, Pending_hits = 0, Reservation_fails = 0
L2_cache_bank[5]: Access = 3091, Miss = 0, Miss_rate = 0.000, Pending_hits = 0, Reservation_fails = 0
L2_cache_bank[6]: Access = 3081, Miss = 0, Miss_rate = 0.000, Pending_hits = 0, Reservation_fails = 0
L2_cache_bank[7]: Access = 3106, Miss = 0, Miss_rate = 0.000, Pending_hits = 0, Reservation_fails = 0
L2_cache_bank[8]: Access = 3132, Miss = 0, Miss_rate = 0.000, Pending_hits = 0, Reservation_fails = 0
L2_cache_bank[9]: Access = 3103, Miss = 0, Miss_rate = 0.000, Pending_hits = 0, Reservation_fails = 0
L2_cache_bank[10]: Access = 3163, Miss = 0, Miss_rate = 0.000, Pending_hits = 0, Reservation_fails = 0
L2_cache_bank[11]: Access = 3146, Miss = 0, Miss_rate = 0.000, Pending_hits = 0, Reservation_fails = 0
L2_cache_bank[12]: Access = 3121, Miss = 0, Miss_rate = 0.000, Pending_hits = 0, Reservation_fails = 0
L2_cache_bank[13]: Access = 3059, Miss = 0, Miss_rate = 0.000, Pending_hits = 0, Reservation_fails = 0
L2_cache_bank[14]: Access = 3071, Miss = 0, Miss_rate = 0.000, Pending_hits = 0, Reservation_fails = 0
L2_cache_bank[15]: Access = 3058, Miss = 0, Miss_rate = 0.000, Pending_hits = 0, Reservation_fails = 0
L2_cache_bank[16]: Access = 3042, Miss = 0, Miss_rate = 0.000, Pending_hits = 0, Reservation_fails = 0
L2_cache_bank[17]: Access = 3029, Miss = 0, Miss_rate = 0.000, Pending_hits = 0, Reservation_fails = 0
L2_cache_bank[18]: Access = 3054, Miss = 0, Miss_rate = 0.000, Pending_hits = 0, Reservation_fails = 0
L2_cache_bank[19]: Access = 3072, Miss = 0, Miss_rate = 0.000, Pending_hits = 0, Reservation_fails = 0
L2_cache_bank[20]: Access = 3108, Miss = 0, Miss_rate = 0.000, Pending_hits = 0, Reservation_fails = 0
L2_cache_bank[21]: Access = 3098, Miss = 0, Miss_rate = 0.000, Pending_hits = 0, Reservation_fails = 0
L2_cache_bank[22]: Access = 3047, Miss = 0, Miss_rate = 0.000, Pending_hits = 0, Reservation_fails = 0
L2_cache_bank[23]: Access = 3091, Miss = 0, Miss_rate = 0.000, Pending_hits = 0, Reservation_fails = 0
L2_cache_bank[24]: Access = 3072, Miss = 0, Miss_rate = 0.000, Pending_hits = 0, Reservation_fails = 0
L2_cache_bank[25]: Access = 3109, Miss = 0, Miss_rate = 0.000, Pending_hits = 0, Reservation_fails = 0
L2_cache_bank[26]: Access = 3092, Miss = 0, Miss_rate = 0.000, Pending_hits = 0, Reservation_fails = 0
L2_cache_bank[27]: Access = 3102, Miss = 0, Miss_rate = 0.000, Pending_hits = 0, Reservation_fails = 0
L2_cache_bank[28]: Access = 3134, Miss = 0, Miss_rate = 0.000, Pending_hits = 0, Reservation_fails = 0
L2_cache_bank[29]: Access = 3087, Miss = 0, Miss_rate = 0.000, Pending_hits = 0, Reservation_fails = 0
L2_cache_bank[30]: Access = 3070, Miss = 0, Miss_rate = 0.000, Pending_hits = 0, Reservation_fails = 0
L2_cache_bank[31]: Access = 3079, Miss = 0, Miss_rate = 0.000, Pending_hits = 0, Reservation_fails = 0
L2_total_cache_accesses = 98872
L2_total_cache_misses = 0
L2_total_cache_miss_rate = 0.0000
L2_total_cache_pending_hits = 0
L2_total_cache_reservation_fails = 0
L2_total_cache_breakdown:
	L2_cache_stats_breakdown[GLOBAL_ACC_R][HIT] = 24481
	L2_cache_stats_breakdown[GLOBAL_ACC_R][HIT_RESERVED] = 0
	L2_cache_stats_breakdown[GLOBAL_ACC_R][MISS] = 0
	L2_cache_stats_breakdown[GLOBAL_ACC_R][RESERVATION_FAIL] = 0
	L2_cache_stats_breakdown[GLOBAL_ACC_R][SECTOR_MISS] = 0
	L2_cache_stats_breakdown[GLOBAL_ACC_R][MSHR_HIT] = 0
	L2_cache_stats_breakdown[LOCAL_ACC_R][HIT] = 0
	L2_cache_stats_breakdown[LOCAL_ACC_R][HIT_RESERVED] = 0
	L2_cache_stats_breakdown[LOCAL_ACC_R][MISS] = 0
	L2_cache_stats_breakdown[LOCAL_ACC_R][RESERVATION_FAIL] = 0
	L2_cache_stats_breakdown[LOCAL_ACC_R][SECTOR_MISS] = 0
	L2_cache_stats_breakdown[LOCAL_ACC_R][MSHR_HIT] = 0
	L2_cache_stats_breakdown[CONST_ACC_R][HIT] = 0
	L2_cache_stats_breakdown[CONST_ACC_R][HIT_RESERVED] = 0
	L2_cache_stats_breakdown[CONST_ACC_R][MISS] = 0
	L2_cache_stats_breakdown[CONST_ACC_R][RESERVATION_FAIL] = 0
	L2_cache_stats_breakdown[CONST_ACC_R][SECTOR_MISS] = 0
	L2_cache_stats_breakdown[CONST_ACC_R][MSHR_HIT] = 0
	L2_cache_stats_breakdown[TEXTURE_ACC_R][HIT] = 0
	L2_cache_stats_breakdown[TEXTURE_ACC_R][HIT_RESERVED] = 0
	L2_cache_stats_breakdown[TEXTURE_ACC_R][MISS] = 0
	L2_cache_stats_breakdown[TEXTURE_ACC_R][RESERVATION_FAIL] = 0
	L2_cache_stats_breakdown[TEXTURE_ACC_R][SECTOR_MISS] = 0
	L2_cache_stats_breakdown[TEXTURE_ACC_R][MSHR_HIT] = 0
	L2_cache_stats_breakdown[GLOBAL_ACC_W][HIT] = 74391
	L2_cache_stats_breakdown[GLOBAL_ACC_W][HIT_RESERVED] = 0
	L2_cache_stats_breakdown[GLOBAL_ACC_W][MISS] = 0
	L2_cache_stats_breakdown[GLOBAL_ACC_W][RESERVATION_FAIL] = 0
	L2_cache_stats_breakdown[GLOBAL_ACC_W][SECTOR_MISS] = 0
	L2_cache_stats_breakdown[GLOBAL_ACC_W][MSHR_HIT] = 0
	L2_cache_stats_breakdown[LOCAL_ACC_W][HIT] = 0
	L2_cache_stats_breakdown[LOCAL_ACC_W][HIT_RESERVED] = 0
	L2_cache_stats_breakdown[LOCAL_ACC_W][MISS] = 0
	L2_cache_stats_breakdown[LOCAL_ACC_W][RESERVATION_FAIL] = 0
	L2_cache_stats_breakdown[LOCAL_ACC_W][SECTOR_MISS] = 0
	L2_cache_stats_breakdown[LOCAL_ACC_W][MSHR_HIT] = 0
	L2_cache_stats_breakdown[L1_WRBK_ACC][HIT] = 0
	L2_cache_stats_breakdown[L1_WRBK_ACC][HIT_RESERVED] = 0
	L2_cache_stats_breakdown[L1_WRBK_ACC][MISS] = 0
	L2_cache_stats_breakdown[L1_WRBK_ACC][RESERVATION_FAIL] = 0
	L2_cache_stats_breakdown[L1_WRBK_ACC][SECTOR_MISS] = 0
	L2_cache_stats_breakdown[L1_WRBK_ACC][MSHR_HIT] = 0
	L2_cache_stats_breakdown[L2_WRBK_ACC][HIT] = 0
	L2_cache_stats_breakdown[L2_WRBK_ACC][HIT_RESERVED] = 0
	L2_cache_stats_breakdown[L2_WRBK_ACC][MISS] = 0
	L2_cache_stats_breakdown[L2_WRBK_ACC][RESERVATION_FAIL] = 0
	L2_cache_stats_breakdown[L2_WRBK_ACC][SECTOR_MISS] = 0
	L2_cache_stats_breakdown[L2_WRBK_ACC][MSHR_HIT] = 0
	L2_cache_stats_breakdown[INST_ACC_R][HIT] = 0
	L2_cache_stats_breakdown[INST_ACC_R][HIT_RESERVED] = 0
	L2_cache_stats_breakdown[INST_ACC_R][MISS] = 0
	L2_cache_stats_breakdown[INST_ACC_R][RESERVATION_FAIL] = 0
	L2_cache_stats_breakdown[INST_ACC_R][SECTOR_MISS] = 0
	L2_cache_stats_breakdown[INST_ACC_R][MSHR_HIT] = 0
	L2_cache_stats_breakdown[L1_WR_ALLOC_R][HIT] = 0
	L2_cache_stats_breakdown[L1_WR_ALLOC_R][HIT_RESERVED] = 0
	L2_cache_stats_breakdown[L1_WR_ALLOC_R][MISS] = 0
	L2_cache_stats_breakdown[L1_WR_ALLOC_R][RESERVATION_FAIL] = 0
	L2_cache_stats_breakdown[L1_WR_ALLOC_R][SECTOR_MISS] = 0
	L2_cache_stats_breakdown[L1_WR_ALLOC_R][MSHR_HIT] = 0
	L2_cache_stats_breakdown[L2_WR_ALLOC_R][HIT] = 0
	L2_cache_stats_breakdown[L2_WR_ALLOC_R][HIT_RESERVED] = 0
	L2_cache_stats_breakdown[L2_WR_ALLOC_R][MISS] = 0
	L2_cache_stats_breakdown[L2_WR_ALLOC_R][RESERVATION_FAIL] = 0
	L2_cache_stats_breakdown[L2_WR_ALLOC_R][SECTOR_MISS] = 0
	L2_cache_stats_breakdown[L2_WR_ALLOC_R][MSHR_HIT] = 0
	L2_cache_stats_breakdown[GLOBAL_ACC_R][TOTAL_ACCESS] = 24481
	L2_cache_stats_breakdown[GLOBAL_ACC_W][TOTAL_ACCESS] = 74391
L2_total_cache_reservation_fail_breakdown:
L2_cache_data_port_util = 0.247
L2_cache_fill_port_util = 0.000

icnt_total_pkts_mem_to_simt=166560
icnt_total_pkts_simt_to_mem=177458
LD_mem_lat_dist  0 0 0 0 0 0 0 0 0 0 0 0 0 0 0 0 0 0 0 0 0 0 0 0 0 0 0
ST_mem_lat_dist  0 0 0 0 0 0 0 0 0 0 0 0 0 0 0 0 0 0 0 0 0 0 0 0 0 0 0
----------------------------Interconnect-DETAILS--------------------------------
Req_Network_injected_packets_num = 177458
Req_Network_cycles = 22334
Req_Network_injected_packets_per_cycle =       7.9456 
Req_Network_conflicts_per_cycle =       1.7684
Req_Network_conflicts_per_cycle_util =       2.4124
Req_Bank_Level_Parallism =      10.8386
Req_Network_in_buffer_full_per_cycle =       0.0000
Req_Network_in_buffer_avg_util =       6.5721
Req_Network_out_buffer_full_per_cycle =       0.0000
Req_Network_out_buffer_avg_util =       0.3410

Reply_Network_injected_packets_num = 176369
Reply_Network_cycles = 22334
Reply_Network_injected_packets_per_cycle =        7.8969
Reply_Network_conflicts_per_cycle =       13.0453
Reply_Network_conflicts_per_cycle_util =      17.8143
Reply_Bank_Level_Parallism =      10.1848
Reply_Network_in_buffer_full_per_cycle =       0.2622
Reply_Network_in_buffer_avg_util =      96.5391
Reply_Network_out_buffer_full_per_cycle =       0.0000
Reply_Network_out_buffer_avg_util =       0.4661
----------------------------END-of-Interconnect-DETAILS-------------------------


gpgpu_simulation_time = 0 days, 0 hrs, 1 min, 50 sec (110 sec)
gpgpu_simulation_rate = 74499 (inst/sec)
gpgpu_simulation_rate = 203 (cycle/sec)
gpgpu_silicon_slowdown = 6403940x
launching kernel name: MESA_SHADER_FRAGMENT_func1_main uid: 2
