Skipping setup_environment - already set
doing: export -n PTX_SIM_USE_PTX_FILE
doing: export LD_LIBRARY_PATH=/root/projects/crisp-framework/accel-sim-framework/util/job_launching/../../sim_run_11.7/gpgpu-sim-builds/accelsim-commit-1c17a3a8a922e56d395733e9a6dba7adc8970a30_modified_0.0_20251021-1717gpgpu-sim_git-commit-1c17a3a8a922e56d395733e9a6dba7adc8970a30_modified_1.0:/root/projects/crisp-framework/accel-sim-framework/gpu-simulator/gpgpu-sim/lib/gcc-/cuda-11070/release:/root/projects/crisp-framework/accel-sim-framework/gpgpu-sim/lib/gcc-/cuda-11070/release:/root/projects/crisp-framework/accel-sim-framework/gpgpu-sim/lib/gcc-/cuda-11070/release:/root/projects/crisp-framework/accel-sim-framework/gpgpu-sim/lib/gcc-/cuda-11070/release:/root/projects/crisp-framework/accel-sim-framework/gpgpu-sim/lib/gcc-/cuda-11070/release:/root/projects/crisp-framework/accel-sim-framework/gpgpu-sim/lib/gcc-/cuda-11070/release:/.singularity.d/libs
doing: cd /root/projects/crisp-framework/accel-sim-framework/util/job_launching/../../sim_run_11.7/render_passes_2k/all1/RTX3070-SASS-concurrent-fg-VISUAL
doing: export OPENCL_CURRENT_TEST_PATH=/root/projects/crisp-framework/accel-sim-framework/util/job_launching/../../sim_run_11.7/render_passes_2k/all1/RTX3070-SASS-concurrent-fg-VISUAL
doing: export OPENCL_REMOTE_GPU_HOST=REPLACE_REMOTE_HOST
doing 
doing: export PATH=/root/projects/crisp-framework/accel-sim-framework/gpu-simulator/gpgpu-sim/bin:/usr/local/cuda-11.7/bin:/root/projects/crisp-framework/accel-sim-framework/gpgpu-sim/bin:/usr/local/cuda-11.7/bin:/usr/local/sbin:/usr/local/bin:/usr/sbin:/usr/bin:/sbin:/bin
doing export CUDA_LAUNCH_BLOCKING=1
doing:  /root/projects/crisp-framework/accel-sim-framework/util/job_launching/../../sim_run_11.7/gpgpu-sim-builds/accelsim-commit-1c17a3a8a922e56d395733e9a6dba7adc8970a30_modified_0.0_20251021-1717gpgpu-sim_git-commit-1c17a3a8a922e56d395733e9a6dba7adc8970a30_modified_1.0/accel-sim.out  -config ./gpgpusim.config -trace ./traces/kernelslist.g
Accel-Sim [build accelsim-commit-1c17a3a8a922e56d395733e9a6dba7adc8970a30_modified_0.0_20251021-1717]

        *** GPGPU-Sim Simulator Version 4.2.0  [build gpgpu-sim_git-commit-1c17a3a8a922e56d395733e9a6dba7adc8970a30_modified_1.0] ***


GPGPU-Sim: Configuration options:

-save_embedded_ptx                      0 # saves ptx files embedded in binary as <n>.ptx
-keep                                   0 # keep intermediate files created by GPGPU-Sim when interfacing with external programs
-gpgpu_ptx_save_converted_ptxplus                    0 # Saved converted ptxplus to a file
-gpgpu_occupancy_sm_number                   86 # The SM number to pass to ptxas when getting register usage for computing GPU occupancy. This parameter is required in the config.
-ptx_opcode_latency_int           4,4,4,4,21 # Opcode latencies for integers <ADD,MAX,MUL,MAD,DIV,SHFL>Default 1,1,19,25,145,32
-ptx_opcode_latency_fp           4,4,4,4,39 # Opcode latencies for single precision floating points <ADD,MAX,MUL,MAD,DIV>Default 1,1,1,1,30
-ptx_opcode_latency_dp      64,64,64,64,330 # Opcode latencies for double precision floating points <ADD,MAX,MUL,MAD,DIV>Default 8,8,8,8,335
-ptx_opcode_latency_sfu                   21 # Opcode latencies for SFU instructionsDefault 8
-ptx_opcode_latency_tesnor                   64 # Opcode latencies for Tensor instructionsDefault 64
-ptx_opcode_initiation_int            2,2,2,2,2 # Opcode initiation intervals for integers <ADD,MAX,MUL,MAD,DIV,SHFL>Default 1,1,4,4,32,4
-ptx_opcode_initiation_fp            1,1,1,1,2 # Opcode initiation intervals for single precision floating points <ADD,MAX,MUL,MAD,DIV>Default 1,1,1,1,5
-ptx_opcode_initiation_dp      64,64,64,64,130 # Opcode initiation intervals for double precision floating points <ADD,MAX,MUL,MAD,DIV>Default 8,8,8,8,130
-ptx_opcode_initiation_sfu                    8 # Opcode initiation intervals for sfu instructionsDefault 8
-ptx_opcode_initiation_tensor                   64 # Opcode initiation intervals for tensor instructionsDefault 64
-cdp_latency         7200,8000,100,12000,1600 # CDP API latency <cudaStreamCreateWithFlags, cudaGetParameterBufferV2_init_perWarp, cudaGetParameterBufferV2_perKernel, cudaLaunchDeviceV2_init_perWarp, cudaLaunchDevicV2_perKernel>Default 7200,8000,100,12000,1600
-network_mode                           2 # Interconnection network mode
-inter_config_file                   mesh # Interconnection network config file
-icnt_in_buffer_limit                  512 # in_buffer_limit
-icnt_out_buffer_limit                  512 # out_buffer_limit
-icnt_subnets                           2 # subnets
-icnt_arbiter_algo                      1 # arbiter_algo
-icnt_verbose                           0 # inct_verbose
-icnt_grant_cycles                      1 # grant_cycles
-gpgpu_ptx_use_cuobjdump                    1 # Use cuobjdump to extract ptx and sass from binaries
-gpgpu_experimental_lib_support                    0 # Try to extract code from cuda libraries [Broken because of unknown cudaGetExportTable]
-checkpoint_option                      0 #  checkpointing flag (0 = no checkpoint)
-checkpoint_kernel                      1 #  checkpointing during execution of which kernel (1- 1st kernel)
-checkpoint_CTA                         0 #  checkpointing after # of CTA (< less than total CTA)
-resume_option                          0 #  resume flag (0 = no resume)
-resume_kernel                          0 #  Resume from which kernel (1= 1st kernel)
-resume_CTA                             0 #  resume from which CTA 
-checkpoint_CTA_t                       0 #  resume from which CTA 
-checkpoint_insn_Y                      0 #  resume from which CTA 
-gpgpu_ptx_convert_to_ptxplus                    0 # Convert SASS (native ISA) to ptxplus and run ptxplus
-gpgpu_ptx_force_max_capability                   86 # Force maximum compute capability
-gpgpu_ptx_inst_debug_to_file                    0 # Dump executed instructions' debug information to file
-gpgpu_ptx_inst_debug_file       inst_debug.txt # Executed instructions' debug output file
-gpgpu_ptx_inst_debug_thread_uid                    1 # Thread UID for executed instructions' debug output
-gpgpu_simd_model                       1 # 1 = post-dominator
-gpgpu_shader_core_pipeline              1536:32 # shader core pipeline config, i.e., {<nthread>:<warpsize>}
-gpgpu_tex_cache:l1  N:4:128:256,L:R:m:N:L,T:512:8,128:2 # per-shader L1 texture cache  (READ-ONLY) config  {<nsets>:<bsize>:<assoc>,<rep>:<wr>:<alloc>:<wr_alloc>,<mshr>:<N>:<merge>,<mq>:<rf>}
-gpgpu_const_cache:l1 N:128:64:8,L:R:f:N:L,S:2:64,4 # per-shader L1 constant memory cache  (READ-ONLY) config  {<nsets>:<bsize>:<assoc>,<rep>:<wr>:<alloc>:<wr_alloc>,<mshr>:<N>:<merge>,<mq>} 
-gpgpu_cache:il1     N:64:128:16,L:R:f:N:L,S:2:48,4 # shader L1 instruction cache config  {<nsets>:<bsize>:<assoc>,<rep>:<wr>:<alloc>:<wr_alloc>,<mshr>:<N>:<merge>,<mq>} 
-gpgpu_cache:dl1     S:4:128:256,L:T:m:L:L,A:384:48,16:0,32 # per-shader L1 data cache config  {<nsets>:<bsize>:<assoc>,<rep>:<wr>:<alloc>:<wr_alloc>,<mshr>:<N>:<merge>,<mq> | none}
-gpgpu_l1_cache_write_ratio                    0 # L1D write ratio
-gpgpu_l1_graphics_ratio                    0 # L1D graphics ratio
-gpgpu_l1_banks                         4 # The number of L1 cache banks
-gpgpu_l1_banks_byte_interleaving                   32 # l1 banks byte interleaving granularity
-gpgpu_l1_banks_hashing_function                    0 # l1 banks hashing function
-gpgpu_l1_latency                      39 # L1 Hit Latency
-gpgpu_smem_latency                    29 # smem Latency
-gpgpu_cache:dl1PrefL1                 none # per-shader L1 data cache config  {<nsets>:<bsize>:<assoc>,<rep>:<wr>:<alloc>:<wr_alloc>,<mshr>:<N>:<merge>,<mq> | none}
-gpgpu_cache:dl1PrefShared                 none # per-shader L1 data cache config  {<nsets>:<bsize>:<assoc>,<rep>:<wr>:<alloc>:<wr_alloc>,<mshr>:<N>:<merge>,<mq> | none}
-gpgpu_gmem_skip_L1D                    0 # global memory access skip L1D cache (implements -Xptxas -dlcm=cg, default=no skip)
-gpgpu_perfect_mem                      0 # enable perfect memory mode (no cache miss)
-n_regfile_gating_group                    4 # group of lanes that should be read/written together)
-gpgpu_clock_gated_reg_file                    0 # enable clock gated reg file for power calculations
-gpgpu_clock_gated_lanes                    0 # enable clock gated lanes for power calculations
-gpgpu_shader_registers                65536 # Number of registers per shader core. Limits number of concurrent CTAs. (default 8192)
-gpgpu_registers_per_block                65536 # Maximum number of registers per CTA. (default 8192)
-gpgpu_ignore_resources_limitation                    0 # gpgpu_ignore_resources_limitation (default 0)
-gpgpu_shader_cta                      32 # Maximum number of concurrent CTAs in shader (default 32)
-gpgpu_num_cta_barriers                   16 # Maximum number of named barriers per CTA (default 16)
-gpgpu_n_clusters                      46 # number of processing clusters
-gpgpu_n_cores_per_cluster                    1 # number of simd cores per cluster
-gpgpu_n_cluster_ejection_buffer_size                   32 # number of packets in ejection buffer
-gpgpu_n_ldst_response_buffer_size                    2 # number of response packets in ld/st unit ejection buffer
-gpgpu_shmem_per_block                49152 # Size of shared memory per thread block or CTA (default 48kB)
-gpgpu_shmem_size                  102400 # Size of shared memory per shader core (default 16kB)
-gpgpu_shmem_option      0,8,16,32,64,100 # Option list of shared memory sizes
-gpgpu_unified_l1d_size                  128 # Size of unified data cache(L1D + shared memory) in KB
-gpgpu_adaptive_cache_config                    1 # adaptive_cache_config
-gpgpu_shmem_sizeDefault               102400 # Size of shared memory per shader core (default 16kB)
-gpgpu_shmem_size_PrefL1                16384 # Size of shared memory per shader core (default 16kB)
-gpgpu_shmem_size_PrefShared                16384 # Size of shared memory per shader core (default 16kB)
-gpgpu_shmem_num_banks                   32 # Number of banks in the shared memory in each shader core (default 16)
-gpgpu_shmem_limited_broadcast                    0 # Limit shared memory to do one broadcast per cycle (default on)
-gpgpu_shmem_warp_parts                    1 # Number of portions a warp is divided into for shared memory bank conflict check 
-gpgpu_mem_unit_ports                    1 # The number of memory transactions allowed per core cycle
-gpgpu_shmem_warp_parts                    1 # Number of portions a warp is divided into for shared memory bank conflict check 
-gpgpu_warpdistro_shader                   -1 # Specify which shader core to collect the warp size distribution from
-gpgpu_warp_issue_shader                    0 # Specify which shader core to collect the warp issue distribution from
-gpgpu_local_mem_map                    0 # Mapping from local memory space address to simulated GPU physical address space (default = enabled)
-gpgpu_num_reg_banks                    8 # Number of register banks (default = 8)
-gpgpu_reg_bank_use_warp_id                    0 # Use warp ID in mapping registers to banks (default = off)
-gpgpu_sub_core_model                    1 # Sub Core Volta/Pascal model (default = off)
-gpgpu_enable_specialized_operand_collector                    0 # enable_specialized_operand_collector
-gpgpu_operand_collector_num_units_sp                    4 # number of collector units (default = 4)
-gpgpu_operand_collector_num_units_dp                    0 # number of collector units (default = 0)
-gpgpu_operand_collector_num_units_sfu                    4 # number of collector units (default = 4)
-gpgpu_operand_collector_num_units_int                    0 # number of collector units (default = 0)
-gpgpu_operand_collector_num_units_tensor_core                    4 # number of collector units (default = 4)
-gpgpu_operand_collector_num_units_mem                    2 # number of collector units (default = 2)
-gpgpu_operand_collector_num_units_gen                    8 # number of collector units (default = 0)
-gpgpu_operand_collector_num_in_ports_sp                    1 # number of collector unit in ports (default = 1)
-gpgpu_operand_collector_num_in_ports_dp                    0 # number of collector unit in ports (default = 0)
-gpgpu_operand_collector_num_in_ports_sfu                    1 # number of collector unit in ports (default = 1)
-gpgpu_operand_collector_num_in_ports_int                    0 # number of collector unit in ports (default = 0)
-gpgpu_operand_collector_num_in_ports_tensor_core                    1 # number of collector unit in ports (default = 1)
-gpgpu_operand_collector_num_in_ports_mem                    1 # number of collector unit in ports (default = 1)
-gpgpu_operand_collector_num_in_ports_gen                    8 # number of collector unit in ports (default = 0)
-gpgpu_operand_collector_num_out_ports_sp                    1 # number of collector unit in ports (default = 1)
-gpgpu_operand_collector_num_out_ports_dp                    0 # number of collector unit in ports (default = 0)
-gpgpu_operand_collector_num_out_ports_sfu                    1 # number of collector unit in ports (default = 1)
-gpgpu_operand_collector_num_out_ports_int                    0 # number of collector unit in ports (default = 0)
-gpgpu_operand_collector_num_out_ports_tensor_core                    1 # number of collector unit in ports (default = 1)
-gpgpu_operand_collector_num_out_ports_mem                    1 # number of collector unit in ports (default = 1)
-gpgpu_operand_collector_num_out_ports_gen                    8 # number of collector unit in ports (default = 0)
-gpgpu_coalesce_arch                   86 # Coalescing arch (GT200 = 13, Fermi = 20)
-gpgpu_num_sched_per_core                    4 # Number of warp schedulers per core
-gpgpu_max_insn_issue_per_warp                    1 # Max number of instructions that can be issued per warp in one cycle by scheduler (either 1 or 2)
-gpgpu_dual_issue_diff_exec_units                    1 # should dual issue use two different execution unit resources (Default = 1)
-gpgpu_simt_core_sim_order                    1 # Select the simulation order of cores in a cluster (0=Fix, 1=Round-Robin)
-gpgpu_pipeline_widths 4,4,4,4,4,4,4,4,4,4,8,4,4 # Pipeline widths ID_OC_SP,ID_OC_DP,ID_OC_INT,ID_OC_SFU,ID_OC_MEM,OC_EX_SP,OC_EX_DP,OC_EX_INT,OC_EX_SFU,OC_EX_MEM,EX_WB,ID_OC_TENSOR_CORE,OC_EX_TENSOR_CORE
-gpgpu_tensor_core_avail                    1 # Tensor Core Available (default=0)
-gpgpu_num_sp_units                     4 # Number of SP units (default=1)
-gpgpu_num_dp_units                     4 # Number of DP units (default=0)
-gpgpu_num_int_units                    4 # Number of INT units (default=0)
-gpgpu_num_sfu_units                    4 # Number of SF units (default=1)
-gpgpu_num_tensor_core_units                    4 # Number of tensor_core units (default=1)
-gpgpu_num_mem_units                    1 # Number if ldst units (default=1) WARNING: not hooked up to anything
-gpgpu_scheduler                      lrr # Scheduler configuration: < lrr | gto | two_level_active > If two_level_active:<num_active_warps>:<inner_prioritization>:<outer_prioritization>For complete list of prioritization values see shader.h enum scheduler_prioritization_typeDefault: gto
-gpgpu_concurrent_kernel_sm                    1 # Support concurrent kernels on a SM (default = disabled)
-gpgpu_invalidate_l2                    0 # Support concurrent kernels on a SM (default = disabled)
-gpgpu_concurrent_mig                    0 # Support concurrent kernels on a SM (default = disabled)
-gpgpu_concurrent_finegrain                    1 # Support concurrent kernels on a SM (default = disabled)
-gpgpu_graphics_sm_count                    8 # the number of SM that runs graphics kernels
-gpgpu_perfect_inst_const_cache                    1 # perfect inst and const cache mode, so all inst and const hits in the cache(default = disabled)
-gpgpu_perfect_l2                       0 # perfect l2 cache(default = disabled)
-gpgpu_skip_l2                          0 # perfect l2 cache(default = disabled)
-gpgpu_perfect_l1                       0 # perfect l1 cache(default = disabled)
-gpgpu_inst_fetch_throughput                    4 # the number of fetched intruction per warp each cycle
-gpgpu_reg_file_port_throughput                    2 # the number ports of the register file
-specialized_unit_1         1,4,4,4,4,BRA # specialized unit config {<enabled>,<num_units>:<latency>:<initiation>,<ID_OC_SPEC>:<OC_EX_SPEC>,<NAME>}
-specialized_unit_2       1,4,200,4,4,TEX # specialized unit config {<enabled>,<num_units>:<latency>:<initiation>,<ID_OC_SPEC>:<OC_EX_SPEC>,<NAME>}
-specialized_unit_3      1,4,1,4,4,TENSOR # specialized unit config {<enabled>,<num_units>:<latency>:<initiation>,<ID_OC_SPEC>:<OC_EX_SPEC>,<NAME>}
-specialized_unit_4         1,4,4,4,4,UDP # specialized unit config {<enabled>,<num_units>:<latency>:<initiation>,<ID_OC_SPEC>:<OC_EX_SPEC>,<NAME>}
-specialized_unit_5         0,4,4,4,4,BRA # specialized unit config {<enabled>,<num_units>:<latency>:<initiation>,<ID_OC_SPEC>:<OC_EX_SPEC>,<NAME>}
-specialized_unit_6         0,4,4,4,4,BRA # specialized unit config {<enabled>,<num_units>:<latency>:<initiation>,<ID_OC_SPEC>:<OC_EX_SPEC>,<NAME>}
-specialized_unit_7         0,4,4,4,4,BRA # specialized unit config {<enabled>,<num_units>:<latency>:<initiation>,<ID_OC_SPEC>:<OC_EX_SPEC>,<NAME>}
-specialized_unit_8         0,4,4,4,4,BRA # specialized unit config {<enabled>,<num_units>:<latency>:<initiation>,<ID_OC_SPEC>:<OC_EX_SPEC>,<NAME>}
-gpgpu_perf_sim_memcpy                    1 # Fill the L2 cache on memcpy
-gpgpu_simple_dram_model                    0 # simple_dram_model with fixed latency and BW
-gpgpu_dram_scheduler                    1 # 0 = fifo, 1 = FR-FCFS (defaul)
-gpgpu_dram_partition_queues          64:64:64:64 # i2$:$2d:d2$:$2i
-l2_ideal                               0 # Use a ideal L2 cache that always hit
-gpgpu_cache:dl2     S:64:128:16,L:B:m:L:P,A:192:4,32:0,32 # unified banked L2 data cache config  {<nsets>:<bsize>:<assoc>,<rep>:<wr>:<alloc>:<wr_alloc>,<mshr>:<N>:<merge>,<mq>}
-gpgpu_l2_graphics_ratio                   50 # L2D graphics ratio
-gpgpu_cache:dl2_texture_only                    0 # L2 cache used for texture only
-gpgpu_n_mem                           16 # number of memory modules (e.g. memory controllers) in gpu
-gpgpu_n_sub_partition_per_mchannel                    2 # number of memory subpartition in each memory module
-gpgpu_n_mem_per_ctrlr                    1 # number of memory chips per memory controller
-gpgpu_memlatency_stat                   14 # track and display latency statistics 0x2 enables MC, 0x4 enables queue logs
-gpgpu_frfcfs_dram_sched_queue_size                   64 # 0 = unlimited (default); # entries per chip
-gpgpu_dram_return_queue_size                  192 # 0 = unlimited (default); # entries per chip
-gpgpu_dram_buswidth                    2 # default = 4 bytes (8 bytes per cycle at DDR)
-gpgpu_dram_burst_length                   16 # Burst length of each DRAM request (default = 4 data bus cycle)
-dram_data_command_freq_ratio                    4 # Frequency ratio between DRAM data bus and command bus (default = 2 times, i.e. DDR)
-gpgpu_dram_timing_opt nbk=16:CCD=4:RRD=12:RCD=24:RAS=55:RP=24:RC=78:CL=24:WL=8:CDLR=10:WR=24:nbkgrp=4:CCDL=6:RTPL=4 # DRAM timing parameters = {nbk:tCCD:tRRD:tRCD:tRAS:tRP:tRC:CL:WL:tCDLR:tWR:nbkgrp:tCCDL:tRTPL}
-gpgpu_l2_rop_latency                  187 # ROP queue latency (default 85)
-dram_latency                         254 # DRAM latency (default 30)
-dram_dual_bus_interface                    0 # dual_bus_interface (default = 0) 
-dram_bnk_indexing_policy                    0 # dram_bnk_indexing_policy (0 = normal indexing, 1 = Xoring with the higher bits) (Default = 0)
-dram_bnkgrp_indexing_policy                    1 # dram_bnkgrp_indexing_policy (0 = take higher bits, 1 = take lower bits) (Default = 0)
-dram_seperate_write_queue_enable                    0 # Seperate_Write_Queue_Enable
-dram_write_queue_size             32:28:16 # Write_Queue_Size
-dram_elimnate_rw_turnaround                    0 # elimnate_rw_turnaround i.e set tWTR and tRTW = 0
-icnt_flit_size                        40 # icnt_flit_size
-gpgpu_mem_addr_mapping dramid@8;00000000.00000000.00000000.00000000.0000RRRR.RRRRRRRR.RBBBCCCC.BCCSSSSS # mapping memory address to dram model {dramid@<start bit>;<memory address map>}
-gpgpu_mem_addr_test                    0 # run sweep test to check address mapping for aliased address
-gpgpu_mem_address_mask                    1 # 0 = old addressing mask, 1 = new addressing mask, 2 = new add. mask + flipped bank sel and chip sel bits
-gpgpu_memory_partition_indexing                    2 # 0 = no indexing, 1 = bitwise xoring, 2 = IPoly, 3 = custom indexing
-accelwattch_xml_file accelwattch_sass_sim.xml # AccelWattch XML file
-power_simulation_enabled                    0 # Turn on power simulator (1=On, 0=Off)
-power_per_cycle_dump                    0 # Dump detailed power output each cycle
-hw_perf_file_name            hw_perf.csv # Hardware Performance Statistics file
-hw_perf_bench_name                       # Kernel Name in Hardware Performance Statistics file
-power_simulation_mode                    0 # Switch performance counter input for power simulation (0=Sim, 1=HW, 2=HW-Sim Hybrid)
-dvfs_enabled                           0 # Turn on DVFS for power model
-aggregate_power_stats                    0 # Accumulate power across all kernels
-accelwattch_hybrid_perfsim_L1_RH                    0 # Get L1 Read Hits for Accelwattch-Hybrid from Accel-Sim
-accelwattch_hybrid_perfsim_L1_RM                    0 # Get L1 Read Misses for Accelwattch-Hybrid from Accel-Sim
-accelwattch_hybrid_perfsim_L1_WH                    0 # Get L1 Write Hits for Accelwattch-Hybrid from Accel-Sim
-accelwattch_hybrid_perfsim_L1_WM                    0 # Get L1 Write Misses for Accelwattch-Hybrid from Accel-Sim
-accelwattch_hybrid_perfsim_L2_RH                    0 # Get L2 Read Hits for Accelwattch-Hybrid from Accel-Sim
-accelwattch_hybrid_perfsim_L2_RM                    0 # Get L2 Read Misses for Accelwattch-Hybrid from Accel-Sim
-accelwattch_hybrid_perfsim_L2_WH                    0 # Get L2 Write Hits for Accelwattch-Hybrid from Accel-Sim
-accelwattch_hybrid_perfsim_L2_WM                    0 # Get L2 Write Misses for Accelwattch-Hybrid from Accel-Sim
-accelwattch_hybrid_perfsim_CC_ACC                    0 # Get Constant Cache Acesses for Accelwattch-Hybrid from Accel-Sim
-accelwattch_hybrid_perfsim_SHARED_ACC                    0 # Get Shared Memory Acesses for Accelwattch-Hybrid from Accel-Sim
-accelwattch_hybrid_perfsim_DRAM_RD                    0 # Get DRAM Reads for Accelwattch-Hybrid from Accel-Sim
-accelwattch_hybrid_perfsim_DRAM_WR                    0 # Get DRAM Writes for Accelwattch-Hybrid from Accel-Sim
-accelwattch_hybrid_perfsim_NOC                    0 # Get Interconnect Acesses for Accelwattch-Hybrid from Accel-Sim
-accelwattch_hybrid_perfsim_PIPE_DUTY                    0 # Get Pipeline Duty Cycle Acesses for Accelwattch-Hybrid from Accel-Sim
-accelwattch_hybrid_perfsim_NUM_SM_IDLE                    0 # Get Number of Idle SMs for Accelwattch-Hybrid from Accel-Sim
-accelwattch_hybrid_perfsim_CYCLES                    0 # Get Executed Cycles for Accelwattch-Hybrid from Accel-Sim
-accelwattch_hybrid_perfsim_VOLTAGE                    0 # Get Chip Voltage for Accelwattch-Hybrid from Accel-Sim
-power_trace_enabled                    0 # produce a file for the power trace (1=On, 0=Off)
-power_trace_zlevel                     6 # Compression level of the power trace output log (0=no comp, 9=highest)
-steady_power_levels_enabled                    0 # produce a file for the steady power levels (1=On, 0=Off)
-steady_state_definition                  8:4 # allowed deviation:number of samples
-gpgpu_dynamic_sm_count                    4 # the number of SM that runs graphics kernels
-gpgpu_mps_sm_count                    12 # the number of SM that runs graphics kernels
-gpgpu_max_cycle                        0 # terminates gpu simulation early (0 = no limit)
-gpgpu_max_insn                         0 # terminates gpu simulation early (0 = no limit)
-gpgpu_max_cta                          0 # terminates gpu simulation early (0 = no limit)
-gpgpu_max_completed_cta                    0 # terminates gpu simulation early (0 = no limit)
-gpgpu_runtime_stat                   500 # display runtime statistics such as dram utilization {<freq>:<flag>}
-liveness_message_freq                    1 # Minimum number of seconds between simulation liveness messages (0 = always print)
-gpgpu_compute_capability_major                    8 # Major compute capability version number
-gpgpu_compute_capability_minor                    6 # Minor compute capability version number
-gpgpu_flush_l1_cache                    1 # Flush L1 cache at the end of each kernel call
-gpgpu_flush_l2_cache                    0 # Flush L2 cache at the end of each kernel call
-gpgpu_slicer                           0 # warped slicer
-gpgpu_utility                          0 # Utility-based partitioning
-max_cta_per_kernel                     1 # 
-enable_max_cta_per_kernel                    0 # 
-gpgpu_deadlock_detect                    1 # Stop the simulation at deadlock (1=on (default), 0=off)
-gpgpu_ptx_instruction_classification                    0 # if enabled will classify ptx instruction types per kernel (Max 255 kernels now)
-gpgpu_ptx_sim_mode                     0 # Select between Performance (default) or Functional simulation (1)
-gpgpu_clock_domains 1132:1132:1132:3500.5 # Clock Domain Frequencies in MhZ {<Core Clock>:<ICNT Clock>:<L2 Clock>:<DRAM Clock>}
-gpgpu_max_concurrent_kernel                   64 # maximum kernels that can run concurrently on GPU, set this value according to max resident grids for your compute capability
-gpgpu_cflog_interval                    0 # Interval between each snapshot in control flow logger
-visualizer_enabled                     1 # Turn on visualizer output (1=On, 0=Off)
-visualizer_outputfile                 NULL # Specifies the output log file for visualizer
-visualizer_zlevel                      6 # Compression level of the visualizer output log (0=no comp, 9=highest)
-gpgpu_stack_size_limit                 1024 # GPU thread stack size
-gpgpu_heap_size_limit              8388608 # GPU malloc heap size 
-gpgpu_runtime_sync_depth_limit                    2 # GPU device runtime synchronize depth
-gpgpu_runtime_pending_launch_count_limit                 2048 # GPU device runtime pending launch count
-trace_enabled                          0 # Turn on traces
-trace_components                    none # comma seperated list of traces to enable. Complete list found in trace_streams.tup. Default none
-trace_sampling_core                    0 # The core which is printed using CORE_DPRINTF. Default 0
-trace_sampling_memory_partition                   -1 # The memory partition which is printed using MEMPART_DPRINTF. Default -1 (i.e. all)
-enable_ptx_file_line_stats                    1 # Turn on PTX source line statistic profiling. (1 = On)
-ptx_line_stats_filename gpgpu_inst_stats.txt # Output file for PTX source line statistics.
-gpgpu_kernel_launch_latency                 5000 # Kernel launch latency in cycles. Default: 0
-gpgpu_cdp_enabled                      0 # Turn on CDP
-gpgpu_TB_launch_latency                    0 # thread block launch latency in cycles. Default: 0
-trace               ./traces/kernelslist.g # traces kernel filetraces kernel file directory
-trace_opcode_latency_initiation_int                  4,2 # Opcode latencies and initiation for integers in trace driven mode <latency,initiation>
-trace_opcode_latency_initiation_sp                  4,2 # Opcode latencies and initiation for sp in trace driven mode <latency,initiation>
-trace_opcode_latency_initiation_dp                64,64 # Opcode latencies and initiation for dp in trace driven mode <latency,initiation>
-trace_opcode_latency_initiation_sfu                 23,8 # Opcode latencies and initiation for sfu in trace driven mode <latency,initiation>
-trace_opcode_latency_initiation_tensor                  1,1 # Opcode latencies and initiation for tensor in trace driven mode <latency,initiation>
-trace_opcode_latency_initiation_spec_op_1                  4,4 # specialized unit config <latency,initiation>
-trace_opcode_latency_initiation_spec_op_2                200,4 # specialized unit config <latency,initiation>
-trace_opcode_latency_initiation_spec_op_3                  1,1 # specialized unit config <latency,initiation>
-trace_opcode_latency_initiation_spec_op_4                  4,1 # specialized unit config <latency,initiation>
-trace_opcode_latency_initiation_spec_op_5                  4,4 # specialized unit config <latency,initiation>
-trace_opcode_latency_initiation_spec_op_6                  4,4 # specialized unit config <latency,initiation>
-trace_opcode_latency_initiation_spec_op_7                  4,4 # specialized unit config <latency,initiation>
-trace_opcode_latency_initiation_spec_op_8                  4,4 # specialized unit config <latency,initiation>
DRAM Timing Options:
nbk                                    16 # number of banks
CCD                                     4 # column to column delay
RRD                                    12 # minimal delay between activation of rows in different banks
RCD                                    24 # row to column delay
RAS                                    55 # time needed to activate row
RP                                     24 # time needed to precharge (deactivate) row
RC                                     78 # row cycle time
CDLR                                   10 # switching from write to read (changes tWTR)
WR                                     24 # last data-in to row precharge
CL                                     24 # CAS latency
WL                                      8 # Write latency
nbkgrp                                  4 # number of bank groups
CCDL                                    6 # column to column delay between accesses to different bank groups
RTPL                                    4 # read to precharge delay between accesses to different bank groups
Total number of memory sub partition = 32
addr_dec_mask[CHIP]  = 0000000000000f00 	high:12 low:8
addr_dec_mask[BK]    = 0000000000070080 	high:19 low:7
addr_dec_mask[ROW]   = 00000000fff80000 	high:32 low:19
addr_dec_mask[COL]   = 000000000000f07f 	high:16 low:0
addr_dec_mask[BURST] = 000000000000001f 	high:5 low:0
sub_partition_id_mask = 0000000000000080
GPGPU-Sim uArch: clock freqs: 1132000000.000000:1132000000.000000:1132000000.000000:3500500000.000000
GPGPU-Sim uArch: clock periods: 0.00000000088339222615:0.00000000088339222615:0.00000000088339222615:0.00000000028567347522
*** Initializing Memory Statistics ***
GPGPU-Sim uArch: performance model initialization complete.
48 MESA kernels parsed
defualt dynamic ratio 4
Processing kernel ./traces/kernel-MESA_SHADER_VERTEX_func0_main_0.traceg
-kernel name = MESA_SHADER_VERTEX_func0_main
-kernel id = 0
-grid dim = (321,1,1)
-block dim = (64,1,1)
-shmem = 0
-nregs = 16
-binary version = 80
-cuda stream id = 3856492
-shmem base_addr = 0xffffffff
-local mem base_addr = 0xffffffff
-nvbit version = 1.5.3
-accelsim tracer version = 3
Header info loaded for kernel command : ./traces/kernel-MESA_SHADER_VERTEX_func0_main_0.traceg
Processing kernel ./traces/kernel-MESA_SHADER_FRAGMENT_func1_main_1.traceg
-kernel name = MESA_SHADER_FRAGMENT_func1_main
-kernel id = 1
-grid dim = (912,1,1)
-block dim = (64,1,1)
-shmem = 0
-nregs = 16
-binary version = 80
-cuda stream id = 3856492
-shmem base_addr = 0xffffffff
-local mem base_addr = 0xffffffff
-nvbit version = 1.5.3
-accelsim tracer version = 3
Header info loaded for kernel command : ./traces/kernel-MESA_SHADER_FRAGMENT_func1_main_1.traceg
Processing kernel ./traces/kernel-MESA_SHADER_VERTEX_func0_main_2.traceg
-kernel name = MESA_SHADER_VERTEX_func0_main
-kernel id = 2
-grid dim = (60,1,1)
-block dim = (64,1,1)
-shmem = 0
-nregs = 16
-binary version = 80
-cuda stream id = 3856492
-shmem base_addr = 0xffffffff
-local mem base_addr = 0xffffffff
-nvbit version = 1.5.3
-accelsim tracer version = 3
Header info loaded for kernel command : ./traces/kernel-MESA_SHADER_VERTEX_func0_main_2.traceg
Processing kernel ./traces/kernel-MESA_SHADER_FRAGMENT_func1_main_3.traceg
-kernel name = MESA_SHADER_FRAGMENT_func1_main
-kernel id = 3
-grid dim = (148,1,1)
-block dim = (64,1,1)
-shmem = 0
-nregs = 16
-binary version = 80
-cuda stream id = 3856492
-shmem base_addr = 0xffffffff
-local mem base_addr = 0xffffffff
-nvbit version = 1.5.3
-accelsim tracer version = 3
Header info loaded for kernel command : ./traces/kernel-MESA_SHADER_FRAGMENT_func1_main_3.traceg
Processing kernel ./traces/kernel-MESA_SHADER_VERTEX_func0_main_4.traceg
-kernel name = MESA_SHADER_VERTEX_func0_main
-kernel id = 4
-grid dim = (86,1,1)
-block dim = (64,1,1)
-shmem = 0
-nregs = 16
-binary version = 80
-cuda stream id = 3856492
-shmem base_addr = 0xffffffff
-local mem base_addr = 0xffffffff
-nvbit version = 1.5.3
-accelsim tracer version = 3
Header info loaded for kernel command : ./traces/kernel-MESA_SHADER_VERTEX_func0_main_4.traceg
Processing kernel ./traces/kernel-MESA_SHADER_FRAGMENT_func1_main_5.traceg
-kernel name = MESA_SHADER_FRAGMENT_func1_main
-kernel id = 5
-grid dim = (209,1,1)
-block dim = (64,1,1)
-shmem = 0
-nregs = 16
-binary version = 80
-cuda stream id = 3856492
-shmem base_addr = 0xffffffff
-local mem base_addr = 0xffffffff
-nvbit version = 1.5.3
-accelsim tracer version = 3
Header info loaded for kernel command : ./traces/kernel-MESA_SHADER_FRAGMENT_func1_main_5.traceg
Processing kernel ./traces/kernel-MESA_SHADER_VERTEX_func0_main_6.traceg
-kernel name = MESA_SHADER_VERTEX_func0_main
-kernel id = 6
-grid dim = (698,1,1)
-block dim = (64,1,1)
-shmem = 0
-nregs = 16
-binary version = 80
-cuda stream id = 3856492
-shmem base_addr = 0xffffffff
-local mem base_addr = 0xffffffff
-nvbit version = 1.5.3
-accelsim tracer version = 3
Header info loaded for kernel command : ./traces/kernel-MESA_SHADER_VERTEX_func0_main_6.traceg
Processing kernel ./traces/kernel-MESA_SHADER_FRAGMENT_func1_main_7.traceg
-kernel name = MESA_SHADER_FRAGMENT_func1_main
-kernel id = 7
-grid dim = (7694,1,1)
-block dim = (64,1,1)
-shmem = 0
-nregs = 16
-binary version = 80
-cuda stream id = 3856492
-shmem base_addr = 0xffffffff
-local mem base_addr = 0xffffffff
-nvbit version = 1.5.3
-accelsim tracer version = 3
Header info loaded for kernel command : ./traces/kernel-MESA_SHADER_FRAGMENT_func1_main_7.traceg
Processing kernel ./traces/kernel-MESA_SHADER_VERTEX_func0_main_8.traceg
-kernel name = MESA_SHADER_VERTEX_func0_main
-kernel id = 8
-grid dim = (64,1,1)
-block dim = (64,1,1)
-shmem = 0
-nregs = 16
-binary version = 80
-cuda stream id = 3856492
-shmem base_addr = 0xffffffff
-local mem base_addr = 0xffffffff
-nvbit version = 1.5.3
-accelsim tracer version = 3
Header info loaded for kernel command : ./traces/kernel-MESA_SHADER_VERTEX_func0_main_8.traceg
Processing kernel ./traces/kernel-MESA_SHADER_FRAGMENT_func1_main_9.traceg
-kernel name = MESA_SHADER_FRAGMENT_func1_main
-kernel id = 9
-grid dim = (664,1,1)
-block dim = (64,1,1)
-shmem = 0
-nregs = 16
-binary version = 80
-cuda stream id = 3856492
-shmem base_addr = 0xffffffff
-local mem base_addr = 0xffffffff
-nvbit version = 1.5.3
-accelsim tracer version = 3
Header info loaded for kernel command : ./traces/kernel-MESA_SHADER_FRAGMENT_func1_main_9.traceg
Processing kernel ./traces/kernel-MESA_SHADER_VERTEX_func0_main_10.traceg
-kernel name = MESA_SHADER_VERTEX_func0_main
-kernel id = 10
-grid dim = (23,1,1)
-block dim = (64,1,1)
-shmem = 0
-nregs = 16
-binary version = 80
-cuda stream id = 3856492
-shmem base_addr = 0xffffffff
-local mem base_addr = 0xffffffff
-nvbit version = 1.5.3
-accelsim tracer version = 3
Header info loaded for kernel command : ./traces/kernel-MESA_SHADER_VERTEX_func0_main_10.traceg
Processing kernel ./traces/kernel-MESA_SHADER_FRAGMENT_func1_main_11.traceg
-kernel name = MESA_SHADER_FRAGMENT_func1_main
-kernel id = 11
-grid dim = (44529,1,1)
-block dim = (64,1,1)
-shmem = 0
-nregs = 16
-binary version = 80
-cuda stream id = 3856492
-shmem base_addr = 0xffffffff
-local mem base_addr = 0xffffffff
-nvbit version = 1.5.3
-accelsim tracer version = 3
Header info loaded for kernel command : ./traces/kernel-MESA_SHADER_FRAGMENT_func1_main_11.traceg
Processing kernel ./traces/kernel-MESA_SHADER_VERTEX_func0_main_12.traceg
-kernel name = MESA_SHADER_VERTEX_func0_main
-kernel id = 12
-grid dim = (125,1,1)
-block dim = (64,1,1)
-shmem = 0
-nregs = 16
-binary version = 80
-cuda stream id = 3856492
-shmem base_addr = 0xffffffff
-local mem base_addr = 0xffffffff
-nvbit version = 1.5.3
-accelsim tracer version = 3
Header info loaded for kernel command : ./traces/kernel-MESA_SHADER_VERTEX_func0_main_12.traceg
Processing kernel ./traces/kernel-MESA_SHADER_FRAGMENT_func1_main_13.traceg
-kernel name = MESA_SHADER_FRAGMENT_func1_main
-kernel id = 13
-grid dim = (15341,1,1)
-block dim = (64,1,1)
-shmem = 0
-nregs = 16
-binary version = 80
-cuda stream id = 3856492
-shmem base_addr = 0xffffffff
-local mem base_addr = 0xffffffff
-nvbit version = 1.5.3
-accelsim tracer version = 3
Header info loaded for kernel command : ./traces/kernel-MESA_SHADER_FRAGMENT_func1_main_13.traceg
Processing kernel ./traces/kernel-MESA_SHADER_VERTEX_func0_main_14.traceg
-kernel name = MESA_SHADER_VERTEX_func0_main
-kernel id = 14
-grid dim = (67,1,1)
-block dim = (64,1,1)
-shmem = 0
-nregs = 16
-binary version = 80
-cuda stream id = 3856492
-shmem base_addr = 0xffffffff
-local mem base_addr = 0xffffffff
-nvbit version = 1.5.3
-accelsim tracer version = 3
Header info loaded for kernel command : ./traces/kernel-MESA_SHADER_VERTEX_func0_main_14.traceg
Processing kernel ./traces/kernel-MESA_SHADER_FRAGMENT_func1_main_15.traceg
-kernel name = MESA_SHADER_FRAGMENT_func1_main
-kernel id = 15
-grid dim = (5029,1,1)
-block dim = (64,1,1)
-shmem = 0
-nregs = 16
-binary version = 80
-cuda stream id = 3856492
-shmem base_addr = 0xffffffff
-local mem base_addr = 0xffffffff
-nvbit version = 1.5.3
-accelsim tracer version = 3
Header info loaded for kernel command : ./traces/kernel-MESA_SHADER_FRAGMENT_func1_main_15.traceg
Processing kernel ./traces/kernel-MESA_SHADER_VERTEX_func0_main_16.traceg
-kernel name = MESA_SHADER_VERTEX_func0_main
-kernel id = 16
-grid dim = (295,1,1)
-block dim = (64,1,1)
-shmem = 0
-nregs = 16
-binary version = 80
-cuda stream id = 3856492
-shmem base_addr = 0xffffffff
-local mem base_addr = 0xffffffff
-nvbit version = 1.5.3
-accelsim tracer version = 3
Header info loaded for kernel command : ./traces/kernel-MESA_SHADER_VERTEX_func0_main_16.traceg
Processing kernel ./traces/kernel-MESA_SHADER_FRAGMENT_func1_main_17.traceg
-kernel name = MESA_SHADER_FRAGMENT_func1_main
-kernel id = 17
-grid dim = (15195,1,1)
-block dim = (64,1,1)
-shmem = 0
-nregs = 16
-binary version = 80
-cuda stream id = 3856492
-shmem base_addr = 0xffffffff
-local mem base_addr = 0xffffffff
-nvbit version = 1.5.3
-accelsim tracer version = 3
Header info loaded for kernel command : ./traces/kernel-MESA_SHADER_FRAGMENT_func1_main_17.traceg
Processing kernel ./traces/kernel-MESA_SHADER_VERTEX_func0_main_18.traceg
-kernel name = MESA_SHADER_VERTEX_func0_main
-kernel id = 18
-grid dim = (198,1,1)
-block dim = (64,1,1)
-shmem = 0
-nregs = 16
-binary version = 80
-cuda stream id = 3856492
-shmem base_addr = 0xffffffff
-local mem base_addr = 0xffffffff
-nvbit version = 1.5.3
-accelsim tracer version = 3
Header info loaded for kernel command : ./traces/kernel-MESA_SHADER_VERTEX_func0_main_18.traceg
Processing kernel ./traces/kernel-MESA_SHADER_FRAGMENT_func1_main_19.traceg
-kernel name = MESA_SHADER_FRAGMENT_func1_main
-kernel id = 19
-grid dim = (1618,1,1)
-block dim = (64,1,1)
-shmem = 0
-nregs = 16
-binary version = 80
-cuda stream id = 3856492
-shmem base_addr = 0xffffffff
-local mem base_addr = 0xffffffff
-nvbit version = 1.5.3
-accelsim tracer version = 3
Header info loaded for kernel command : ./traces/kernel-MESA_SHADER_FRAGMENT_func1_main_19.traceg
Processing kernel ./traces/kernel-MESA_SHADER_VERTEX_func0_main_20.traceg
-kernel name = MESA_SHADER_VERTEX_func0_main
-kernel id = 20
-grid dim = (22,1,1)
-block dim = (64,1,1)
-shmem = 0
-nregs = 16
-binary version = 80
-cuda stream id = 3856492
-shmem base_addr = 0xffffffff
-local mem base_addr = 0xffffffff
-nvbit version = 1.5.3
-accelsim tracer version = 3
Header info loaded for kernel command : ./traces/kernel-MESA_SHADER_VERTEX_func0_main_20.traceg
Processing kernel ./traces/kernel-MESA_SHADER_FRAGMENT_func1_main_21.traceg
-kernel name = MESA_SHADER_FRAGMENT_func1_main
-kernel id = 21
-grid dim = (1224,1,1)
-block dim = (64,1,1)
-shmem = 0
-nregs = 16
-binary version = 80
-cuda stream id = 3856492
-shmem base_addr = 0xffffffff
-local mem base_addr = 0xffffffff
-nvbit version = 1.5.3
-accelsim tracer version = 3
Header info loaded for kernel command : ./traces/kernel-MESA_SHADER_FRAGMENT_func1_main_21.traceg
Processing kernel ./traces/kernel-MESA_SHADER_VERTEX_func0_main_22.traceg
-kernel name = MESA_SHADER_VERTEX_func0_main
-kernel id = 22
-grid dim = (1,1,1)
-block dim = (64,1,1)
-shmem = 0
-nregs = 16
-binary version = 80
-cuda stream id = 3856492
-shmem base_addr = 0xffffffff
-local mem base_addr = 0xffffffff
-nvbit version = 1.5.3
-accelsim tracer version = 3
Header info loaded for kernel command : ./traces/kernel-MESA_SHADER_VERTEX_func0_main_22.traceg
Processing kernel ./traces/kernel-MESA_SHADER_FRAGMENT_func1_main_23.traceg
-kernel name = MESA_SHADER_FRAGMENT_func1_main
-kernel id = 23
-grid dim = (6844,1,1)
-block dim = (64,1,1)
-shmem = 0
-nregs = 16
-binary version = 80
-cuda stream id = 3856492
-shmem base_addr = 0xffffffff
-local mem base_addr = 0xffffffff
-nvbit version = 1.5.3
-accelsim tracer version = 3
Header info loaded for kernel command : ./traces/kernel-MESA_SHADER_FRAGMENT_func1_main_23.traceg
Processing kernel ./traces/kernel-MESA_SHADER_VERTEX_func0_main_24.traceg
-kernel name = MESA_SHADER_VERTEX_func0_main
-kernel id = 24
-grid dim = (621,1,1)
-block dim = (64,1,1)
-shmem = 0
-nregs = 16
-binary version = 80
-cuda stream id = 3856492
-shmem base_addr = 0xffffffff
-local mem base_addr = 0xffffffff
-nvbit version = 1.5.3
-accelsim tracer version = 3
Header info loaded for kernel command : ./traces/kernel-MESA_SHADER_VERTEX_func0_main_24.traceg
Processing kernel ./traces/kernel-MESA_SHADER_FRAGMENT_func1_main_25.traceg
-kernel name = MESA_SHADER_FRAGMENT_func1_main
-kernel id = 25
-grid dim = (586,1,1)
-block dim = (64,1,1)
-shmem = 0
-nregs = 16
-binary version = 80
-cuda stream id = 3856492
-shmem base_addr = 0xffffffff
-local mem base_addr = 0xffffffff
-nvbit version = 1.5.3
-accelsim tracer version = 3
Header info loaded for kernel command : ./traces/kernel-MESA_SHADER_FRAGMENT_func1_main_25.traceg
Processing kernel ./traces/kernel-MESA_SHADER_VERTEX_func0_main_26.traceg
-kernel name = MESA_SHADER_VERTEX_func0_main
-kernel id = 26
-grid dim = (184,1,1)
-block dim = (64,1,1)
-shmem = 0
-nregs = 16
-binary version = 80
-cuda stream id = 3856492
-shmem base_addr = 0xffffffff
-local mem base_addr = 0xffffffff
-nvbit version = 1.5.3
-accelsim tracer version = 3
Header info loaded for kernel command : ./traces/kernel-MESA_SHADER_VERTEX_func0_main_26.traceg
Processing kernel ./traces/kernel-MESA_SHADER_FRAGMENT_func1_main_27.traceg
-kernel name = MESA_SHADER_FRAGMENT_func1_main
-kernel id = 27
-grid dim = (74,1,1)
-block dim = (64,1,1)
-shmem = 0
-nregs = 16
-binary version = 80
-cuda stream id = 3856492
-shmem base_addr = 0xffffffff
-local mem base_addr = 0xffffffff
-nvbit version = 1.5.3
-accelsim tracer version = 3
Header info loaded for kernel command : ./traces/kernel-MESA_SHADER_FRAGMENT_func1_main_27.traceg
Processing kernel ./traces/kernel-MESA_SHADER_VERTEX_func0_main_28.traceg
-kernel name = MESA_SHADER_VERTEX_func0_main
-kernel id = 28
-grid dim = (1,1,1)
-block dim = (64,1,1)
-shmem = 0
-nregs = 16
-binary version = 80
-cuda stream id = 3856492
-shmem base_addr = 0xffffffff
-local mem base_addr = 0xffffffff
-nvbit version = 1.5.3
-accelsim tracer version = 3
Header info loaded for kernel command : ./traces/kernel-MESA_SHADER_VERTEX_func0_main_28.traceg
Processing kernel ./traces/kernel-MESA_SHADER_FRAGMENT_func1_main_29.traceg
-kernel name = MESA_SHADER_FRAGMENT_func1_main
-kernel id = 29
-grid dim = (458,1,1)
-block dim = (64,1,1)
-shmem = 0
-nregs = 16
-binary version = 80
-cuda stream id = 3856492
-shmem base_addr = 0xffffffff
-local mem base_addr = 0xffffffff
-nvbit version = 1.5.3
-accelsim tracer version = 3
Header info loaded for kernel command : ./traces/kernel-MESA_SHADER_FRAGMENT_func1_main_29.traceg
Processing kernel ./traces/kernel-MESA_SHADER_VERTEX_func0_main_30.traceg
-kernel name = MESA_SHADER_VERTEX_func0_main
-kernel id = 30
-grid dim = (394,1,1)
-block dim = (64,1,1)
-shmem = 0
-nregs = 16
-binary version = 80
-cuda stream id = 3856492
-shmem base_addr = 0xffffffff
-local mem base_addr = 0xffffffff
-nvbit version = 1.5.3
-accelsim tracer version = 3
Header info loaded for kernel command : ./traces/kernel-MESA_SHADER_VERTEX_func0_main_30.traceg
Processing kernel ./traces/kernel-MESA_SHADER_FRAGMENT_func1_main_31.traceg
-kernel name = MESA_SHADER_FRAGMENT_func1_main
-kernel id = 31
-grid dim = (69,1,1)
-block dim = (64,1,1)
-shmem = 0
-nregs = 16
-binary version = 80
-cuda stream id = 3856492
-shmem base_addr = 0xffffffff
-local mem base_addr = 0xffffffff
-nvbit version = 1.5.3
-accelsim tracer version = 3
Header info loaded for kernel command : ./traces/kernel-MESA_SHADER_FRAGMENT_func1_main_31.traceg
Processing kernel ./traces/kernel-MESA_SHADER_VERTEX_func0_main_32.traceg
-kernel name = MESA_SHADER_VERTEX_func0_main
-kernel id = 32
-grid dim = (315,1,1)
-block dim = (64,1,1)
-shmem = 0
-nregs = 16
-binary version = 80
-cuda stream id = 3856492
-shmem base_addr = 0xffffffff
-local mem base_addr = 0xffffffff
-nvbit version = 1.5.3
-accelsim tracer version = 3
Header info loaded for kernel command : ./traces/kernel-MESA_SHADER_VERTEX_func0_main_32.traceg
Processing kernel ./traces/kernel-MESA_SHADER_FRAGMENT_func1_main_33.traceg
-kernel name = MESA_SHADER_FRAGMENT_func1_main
-kernel id = 33
-grid dim = (921,1,1)
-block dim = (64,1,1)
-shmem = 0
-nregs = 16
-binary version = 80
-cuda stream id = 3856492
-shmem base_addr = 0xffffffff
-local mem base_addr = 0xffffffff
-nvbit version = 1.5.3
-accelsim tracer version = 3
Header info loaded for kernel command : ./traces/kernel-MESA_SHADER_FRAGMENT_func1_main_33.traceg
Processing kernel ./traces/kernel-MESA_SHADER_VERTEX_func0_main_34.traceg
-kernel name = MESA_SHADER_VERTEX_func0_main
-kernel id = 34
-grid dim = (1,1,1)
-block dim = (64,1,1)
-shmem = 0
-nregs = 16
-binary version = 80
-cuda stream id = 3856492
-shmem base_addr = 0xffffffff
-local mem base_addr = 0xffffffff
-nvbit version = 1.5.3
-accelsim tracer version = 3
Header info loaded for kernel command : ./traces/kernel-MESA_SHADER_VERTEX_func0_main_34.traceg
Processing kernel ./traces/kernel-MESA_SHADER_FRAGMENT_func1_main_35.traceg
-kernel name = MESA_SHADER_FRAGMENT_func1_main
-kernel id = 35
-grid dim = (22,1,1)
-block dim = (64,1,1)
-shmem = 0
-nregs = 16
-binary version = 80
-cuda stream id = 3856492
-shmem base_addr = 0xffffffff
-local mem base_addr = 0xffffffff
-nvbit version = 1.5.3
-accelsim tracer version = 3
Header info loaded for kernel command : ./traces/kernel-MESA_SHADER_FRAGMENT_func1_main_35.traceg
Processing kernel ./traces/kernel-MESA_SHADER_VERTEX_func0_main_36.traceg
-kernel name = MESA_SHADER_VERTEX_func0_main
-kernel id = 36
-grid dim = (236,1,1)
-block dim = (64,1,1)
-shmem = 0
-nregs = 16
-binary version = 80
-cuda stream id = 3856492
-shmem base_addr = 0xffffffff
-local mem base_addr = 0xffffffff
-nvbit version = 1.5.3
-accelsim tracer version = 3
Header info loaded for kernel command : ./traces/kernel-MESA_SHADER_VERTEX_func0_main_36.traceg
Processing kernel ./traces/kernel-MESA_SHADER_FRAGMENT_func1_main_37.traceg
-kernel name = MESA_SHADER_FRAGMENT_func1_main
-kernel id = 37
-grid dim = (14348,1,1)
-block dim = (64,1,1)
-shmem = 0
-nregs = 16
-binary version = 80
-cuda stream id = 3856492
-shmem base_addr = 0xffffffff
-local mem base_addr = 0xffffffff
-nvbit version = 1.5.3
-accelsim tracer version = 3
Header info loaded for kernel command : ./traces/kernel-MESA_SHADER_FRAGMENT_func1_main_37.traceg
Processing kernel ./traces/kernel-MESA_SHADER_VERTEX_func0_main_38.traceg
-kernel name = MESA_SHADER_VERTEX_func0_main
-kernel id = 38
-grid dim = (317,1,1)
-block dim = (64,1,1)
-shmem = 0
-nregs = 16
-binary version = 80
-cuda stream id = 3856492
-shmem base_addr = 0xffffffff
-local mem base_addr = 0xffffffff
-nvbit version = 1.5.3
-accelsim tracer version = 3
Header info loaded for kernel command : ./traces/kernel-MESA_SHADER_VERTEX_func0_main_38.traceg
Processing kernel ./traces/kernel-MESA_SHADER_FRAGMENT_func1_main_39.traceg
-kernel name = MESA_SHADER_FRAGMENT_func1_main
-kernel id = 39
-grid dim = (19979,1,1)
-block dim = (64,1,1)
-shmem = 0
-nregs = 16
-binary version = 80
-cuda stream id = 3856492
-shmem base_addr = 0xffffffff
-local mem base_addr = 0xffffffff
-nvbit version = 1.5.3
-accelsim tracer version = 3
Header info loaded for kernel command : ./traces/kernel-MESA_SHADER_FRAGMENT_func1_main_39.traceg
Processing kernel ./traces/kernel-MESA_SHADER_VERTEX_func0_main_40.traceg
-kernel name = MESA_SHADER_VERTEX_func0_main
-kernel id = 40
-grid dim = (225,1,1)
-block dim = (64,1,1)
-shmem = 0
-nregs = 16
-binary version = 80
-cuda stream id = 3856492
-shmem base_addr = 0xffffffff
-local mem base_addr = 0xffffffff
-nvbit version = 1.5.3
-accelsim tracer version = 3
Header info loaded for kernel command : ./traces/kernel-MESA_SHADER_VERTEX_func0_main_40.traceg
Processing kernel ./traces/kernel-MESA_SHADER_FRAGMENT_func1_main_41.traceg
-kernel name = MESA_SHADER_FRAGMENT_func1_main
-kernel id = 41
-grid dim = (2251,1,1)
-block dim = (64,1,1)
-shmem = 0
-nregs = 16
-binary version = 80
-cuda stream id = 3856492
-shmem base_addr = 0xffffffff
-local mem base_addr = 0xffffffff
-nvbit version = 1.5.3
-accelsim tracer version = 3
Header info loaded for kernel command : ./traces/kernel-MESA_SHADER_FRAGMENT_func1_main_41.traceg
Processing kernel ./traces/kernel-MESA_SHADER_VERTEX_func0_main_42.traceg
-kernel name = MESA_SHADER_VERTEX_func0_main
-kernel id = 42
-grid dim = (248,1,1)
-block dim = (64,1,1)
-shmem = 0
-nregs = 16
-binary version = 80
-cuda stream id = 3856492
-shmem base_addr = 0xffffffff
-local mem base_addr = 0xffffffff
-nvbit version = 1.5.3
-accelsim tracer version = 3
Header info loaded for kernel command : ./traces/kernel-MESA_SHADER_VERTEX_func0_main_42.traceg
Processing kernel ./traces/kernel-MESA_SHADER_FRAGMENT_func1_main_43.traceg
-kernel name = MESA_SHADER_FRAGMENT_func1_main
-kernel id = 43
-grid dim = (494,1,1)
-block dim = (64,1,1)
-shmem = 0
-nregs = 16
-binary version = 80
-cuda stream id = 3856492
-shmem base_addr = 0xffffffff
-local mem base_addr = 0xffffffff
-nvbit version = 1.5.3
-accelsim tracer version = 3
Header info loaded for kernel command : ./traces/kernel-MESA_SHADER_FRAGMENT_func1_main_43.traceg
Processing kernel ./traces/kernel-MESA_SHADER_VERTEX_func0_main_44.traceg
-kernel name = MESA_SHADER_VERTEX_func0_main
-kernel id = 44
-grid dim = (243,1,1)
-block dim = (64,1,1)
-shmem = 0
-nregs = 16
-binary version = 80
-cuda stream id = 3856492
-shmem base_addr = 0xffffffff
-local mem base_addr = 0xffffffff
-nvbit version = 1.5.3
-accelsim tracer version = 3
Header info loaded for kernel command : ./traces/kernel-MESA_SHADER_VERTEX_func0_main_44.traceg
Processing kernel ./traces/kernel-MESA_SHADER_FRAGMENT_func1_main_45.traceg
-kernel name = MESA_SHADER_FRAGMENT_func1_main
-kernel id = 45
-grid dim = (1577,1,1)
-block dim = (64,1,1)
-shmem = 0
-nregs = 16
-binary version = 80
-cuda stream id = 3856492
-shmem base_addr = 0xffffffff
-local mem base_addr = 0xffffffff
-nvbit version = 1.5.3
-accelsim tracer version = 3
Header info loaded for kernel command : ./traces/kernel-MESA_SHADER_FRAGMENT_func1_main_45.traceg
Processing kernel ./traces/kernel-MESA_SHADER_VERTEX_func0_main_46.traceg
-kernel name = MESA_SHADER_VERTEX_func0_main
-kernel id = 46
-grid dim = (162,1,1)
-block dim = (64,1,1)
-shmem = 0
-nregs = 16
-binary version = 80
-cuda stream id = 3856492
-shmem base_addr = 0xffffffff
-local mem base_addr = 0xffffffff
-nvbit version = 1.5.3
-accelsim tracer version = 3
Header info loaded for kernel command : ./traces/kernel-MESA_SHADER_VERTEX_func0_main_46.traceg
Processing kernel ./traces/kernel-MESA_SHADER_FRAGMENT_func1_main_47.traceg
-kernel name = MESA_SHADER_FRAGMENT_func1_main
-kernel id = 47
-grid dim = (1076,1,1)
-block dim = (64,1,1)
-shmem = 0
-nregs = 16
-binary version = 80
-cuda stream id = 3856492
-shmem base_addr = 0xffffffff
-local mem base_addr = 0xffffffff
-nvbit version = 1.5.3
-accelsim tracer version = 3
Header info loaded for kernel command : ./traces/kernel-MESA_SHADER_FRAGMENT_func1_main_47.traceg
Processing kernel ./traces/vpi_sample_03_harris_corners-kernel-1.traceg
-kernel name = _ZN2nv3vpi4priv84_GLOBAL__N__55_tmpxft_00000944_00000000_11_CUDAImpl_compute_70_cpp1_ii_352aee50_248312ConvertPlaneIs6uchar3ZNS2_12ConvertPlaneIsS4_sZNS1_21ConvertRGBSpaceToLumaINS1_5BT601ENS1_9FullRangeEsS4_JLi2ELi1ELi0EEEEvRNS_4cuda4IMemIT1_LNS9_6LayoutE0ELi2EEERKNS9_9IConstMemIT2_LSC_0ELi2EEERK27VPIConvertImageFormatParamsP11CUstream_stEUlT_E_ZS6_IS7_S8_sS4_JLi2ELi1ELi0EEEvSE_SJ_SM_SO_EUlSP_E0_EEvRNSA_ISP_LSC_0ELi2EEERKNSF_IT0_LSC_0ELi2EEESG_T3_SM_SO_EUlS4_E0_EEvNS9_6MemRefISP_LSC_0ELi2EEENS9_11ConstMemRefISU_LSC_0ELi2EEE5uint2SB_
-kernel id = 1
-grid dim = (24,60,1)
-block dim = (32,8,1)
-shmem = 0
-nregs = 12
-binary version = 80
-cuda stream id = 2
-shmem base_addr = 0x00007f8e1b000000
-local mem base_addr = 0x00007f8e19000000
-nvbit version = 1.5.3
-accelsim tracer version = 3
Header info loaded for kernel command : ./traces/vpi_sample_03_harris_corners-kernel-1.traceg
Processing kernel ./traces/vpi_sample_03_harris_corners-kernel-2.traceg
-kernel name = _ZN2nv3vpi4priv82_GLOBAL__N__53_tmpxft_00000cd3_00000000_11_conv2d_compute_70_cpp1_ii_e98725cf_34266Conv2DILi3ELi3EEEvNS1_14RawImageBufferES4_mmNS2_19ConvolutionParams2DIXT_EXT0_EEE18VPIBorderExtension
-kernel id = 2
-grid dim = (24,10,1)
-block dim = (128,1,1)
-shmem = 8000
-nregs = 40
-binary version = 80
-cuda stream id = 2
-shmem base_addr = 0x00007f8e1b000000
-local mem base_addr = 0x00007f8e19000000
-nvbit version = 1.5.3
-accelsim tracer version = 3
Header info loaded for kernel command : ./traces/vpi_sample_03_harris_corners-kernel-2.traceg
Processing kernel ./traces/vpi_sample_03_harris_corners-kernel-3.traceg
-kernel name = _ZN2nv3vpi4priv82_GLOBAL__N__53_tmpxft_00000cd3_00000000_11_conv2d_compute_70_cpp1_ii_e98725cf_34266Conv2DILi3ELi3EEEvNS1_14RawImageBufferES4_mmNS2_19ConvolutionParams2DIXT_EXT0_EEE18VPIBorderExtension
-kernel id = 3
-grid dim = (24,10,1)
-block dim = (128,1,1)
-shmem = 8000
-nregs = 40
-binary version = 80
-cuda stream id = 2
-shmem base_addr = 0x00007f8e1b000000
-local mem base_addr = 0x00007f8e19000000
-nvbit version = 1.5.3
-accelsim tracer version = 3
Header info loaded for kernel command : ./traces/vpi_sample_03_harris_corners-kernel-3.traceg
Processing kernel ./traces/vpi_sample_03_harris_corners-kernel-4.traceg
-kernel name = _ZN2nv3vpi4priv23CalculateCornerStrengthILi3ELi3EEEvNS1_14RawImageBufferES3_5uint2S3_f
-kernel id = 4
-grid dim = (24,15,1)
-block dim = (256,1,1)
-shmem = 16416
-nregs = 46
-binary version = 80
-cuda stream id = 2
-shmem base_addr = 0x00007f8e1b000000
-local mem base_addr = 0x00007f8e19000000
-nvbit version = 1.5.3
-accelsim tracer version = 3
Header info loaded for kernel command : ./traces/vpi_sample_03_harris_corners-kernel-4.traceg
Processing kernel ./traces/vpi_sample_03_harris_corners-kernel-5.traceg
-kernel name = _ZN2nv3vpi4priv13FilterCornersILj8EEEvNS_4cuda11ConstMemRefIiLNS3_6LayoutE0ELi2EEENS3_6MemRefI11VPIKeypointLS5_0ELi1EEENS7_IjLS5_0ELi1EEEjf5uint2Pjj
-kernel id = 5
-grid dim = (3,8,1)
-block dim = (32,8,1)
-shmem = 0
-nregs = 28
-binary version = 80
-cuda stream id = 2
-shmem base_addr = 0x00007f8e1b000000
-local mem base_addr = 0x00007f8e19000000
-nvbit version = 1.5.3
-accelsim tracer version = 3
Header info loaded for kernel command : ./traces/vpi_sample_03_harris_corners-kernel-5.traceg
Processing kernel ./traces/vpi_sample_03_harris_corners-kernel-6.traceg
-kernel name = _ZN2nv3vpi4priv9LimitSizeEPjS2_j
-kernel id = 6
-grid dim = (1,1,1)
-block dim = (1,1,1)
-shmem = 0
-nregs = 10
-binary version = 80
-cuda stream id = 2
-shmem base_addr = 0x00007f8e1b000000
-local mem base_addr = 0x00007f8e19000000
-nvbit version = 1.5.3
-accelsim tracer version = 3
Header info loaded for kernel command : ./traces/vpi_sample_03_harris_corners-kernel-6.traceg
Processing kernel ./traces/klt_tracker-kernel-1.traceg
-kernel name = _ZN2nv3vpi4priv82_GLOBAL__N__53_tmpxft_00000cd3_00000000_11_conv2d_compute_70_cpp1_ii_e98725cf_34266Conv2DILi3ELi3EEEvNS1_14RawImageBufferES4_mmNS2_19ConvolutionParams2DIXT_EXT0_EEE18VPIBorderExtension
-kernel id = 1
-grid dim = (24,10,1)
-block dim = (128,1,1)
-shmem = 8000
-nregs = 40
-binary version = 80
-cuda stream id = 2
-shmem base_addr = 0x00007fee3e000000
-local mem base_addr = 0x00007fee3c000000
-nvbit version = 1.5.3
-accelsim tracer version = 3
Header info loaded for kernel command : ./traces/klt_tracker-kernel-1.traceg
Processing kernel ./traces/klt_tracker-kernel-2.traceg
-kernel name = _ZN2nv3vpi4priv82_GLOBAL__N__53_tmpxft_00000cd3_00000000_11_conv2d_compute_70_cpp1_ii_e98725cf_34266Conv2DILi3ELi3EEEvNS1_14RawImageBufferES4_mmNS2_19ConvolutionParams2DIXT_EXT0_EEE18VPIBorderExtension
-kernel id = 2
-grid dim = (24,10,1)
-block dim = (128,1,1)
-shmem = 8000
-nregs = 40
-binary version = 80
-cuda stream id = 2
-shmem base_addr = 0x00007fee3e000000
-local mem base_addr = 0x00007fee3c000000
-nvbit version = 1.5.3
-accelsim tracer version = 3
Header info loaded for kernel command : ./traces/klt_tracker-kernel-2.traceg
Processing kernel ./traces/klt_tracker-kernel-3.traceg
-kernel name = _ZN2nv3vpi4priv82_GLOBAL__N__53_tmpxft_00000cd3_00000000_11_conv2d_compute_70_cpp1_ii_e98725cf_34266Conv2DILi3ELi3EEEvNS1_14RawImageBufferES4_mmNS2_19ConvolutionParams2DIXT_EXT0_EEE18VPIBorderExtension
-kernel id = 3
-grid dim = (24,10,1)
-block dim = (128,1,1)
-shmem = 8000
-nregs = 40
-binary version = 80
-cuda stream id = 2
-shmem base_addr = 0x00007fee3e000000
-local mem base_addr = 0x00007fee3c000000
-nvbit version = 1.5.3
-accelsim tracer version = 3
Header info loaded for kernel command : ./traces/klt_tracker-kernel-3.traceg
Processing kernel ./traces/klt_tracker-kernel-4.traceg
-kernel name = _ZN2nv3vpi4priv82_GLOBAL__N__53_tmpxft_00000cd3_00000000_11_conv2d_compute_70_cpp1_ii_e98725cf_34266Conv2DILi3ELi3EEEvNS1_14RawImageBufferES4_mmNS2_19ConvolutionParams2DIXT_EXT0_EEE18VPIBorderExtension
-kernel id = 4
-grid dim = (24,10,1)
-block dim = (128,1,1)
-shmem = 8000
-nregs = 40
-binary version = 80
-cuda stream id = 2
-shmem base_addr = 0x00007fee3e000000
-local mem base_addr = 0x00007fee3c000000
-nvbit version = 1.5.3
-accelsim tracer version = 3
Header info loaded for kernel command : ./traces/klt_tracker-kernel-4.traceg
Processing kernel ./traces/klt_tracker-kernel-5.traceg
-kernel name = _ZN2nv3vpi4priv82_GLOBAL__N__58_tmpxft_00000867_00000000_11_klt_tracker_compute_70_cpp1_ii_1cb22fff15UpdateTemplatesENS_4cuda12Texture2DRefIfEES5_NS3_11ConstMemRefIfLNS3_6LayoutE0ELi2EEENS3_6MemRefIfLS7_0ELi2EEESA_SA_NS6_I24VPIKLTTrackedBoundingBoxLS7_0ELi1EEEPKjNS9_ISB_LS7_0ELi1EEEPj5uint2ii
-kernel id = 5
-grid dim = (128,1,1)
-block dim = (32,8,1)
-shmem = 0
-nregs = 44
-binary version = 80
-cuda stream id = 2
-shmem base_addr = 0x00007fee3e000000
-local mem base_addr = 0x00007fee3c000000
-nvbit version = 1.5.3
-accelsim tracer version = 3
Header info loaded for kernel command : ./traces/klt_tracker-kernel-5.traceg
Processing kernel ./traces/klt_tracker-kernel-6.traceg
-kernel name = _ZN2nv3vpi4priv82_GLOBAL__N__58_tmpxft_00000867_00000000_11_klt_tracker_compute_70_cpp1_ii_1cb22fff16CalculateHessianENS_4cuda6MemRefIfLNS3_6LayoutE0ELi2EEES6_S6_NS4_I6float3LS5_0ELi2EEENS4_IN9gpufilter6MatrixIfLi3ELi3EEELS5_0ELi1EEENS4_IfLS5_0ELi1EEESD_NS3_11ConstMemRefI24VPIKLTTrackedBoundingBoxLS5_0ELi1EEEPKjNS4_ISF_LS5_0ELi1EEE5uint2ii
-kernel id = 6
-grid dim = (128,1,1)
-block dim = (32,8,1)
-shmem = 420
-nregs = 40
-binary version = 80
-cuda stream id = 2
-shmem base_addr = 0x00007fee3e000000
-local mem base_addr = 0x00007fee3c000000
-nvbit version = 1.5.3
-accelsim tracer version = 3
Header info loaded for kernel command : ./traces/klt_tracker-kernel-6.traceg
Processing kernel ./traces/klt_tracker-kernel-7.traceg
-kernel name = _ZN2nv3vpi4priv82_GLOBAL__N__58_tmpxft_00000867_00000000_11_klt_tracker_compute_70_cpp1_ii_1cb22fff12KLTIterationENS_4cuda6MemRefIfLNS3_6LayoutE0ELi2EEENS3_12Texture2DRefIfEENS4_I6float3LS5_0ELi2EEENS4_IN9gpufilter6MatrixIfLi3ELi3EEELS5_0ELi1EEENS4_IfLS5_0ELi1EEESF_NS3_11ConstMemRefI24VPIKLTTrackedBoundingBoxLS5_0ELi1EEEPjNS4_ISH_LS5_0ELi1EEENSG_I24VPIHomographyTransform2DLS5_0ELi1EEESJ_NS4_ISL_LS5_0ELi1EEESJ_26VPIKLTFeatureTrackerParams5uint2i
-kernel id = 7
-grid dim = (128,1,1)
-block dim = (32,8,1)
-shmem = 276
-nregs = 56
-binary version = 80
-cuda stream id = 2
-shmem base_addr = 0x00007fee3e000000
-local mem base_addr = 0x00007fee3c000000
-nvbit version = 1.5.3
-accelsim tracer version = 3
Header info loaded for kernel command : ./traces/klt_tracker-kernel-7.traceg
Processing kernel ./traces/vpi_sample_11_fisheye-kernel-1.traceg
-kernel name = _ZN2nv3vpi4priv11gpuDenseMapENS_4cuda6MemRefI6float2LNS2_6LayoutE0ELi2EEENS2_11ConstMemRefIS4_LS5_0ELi2EEENS2_5ArrayINS1_17RemapTaskCUDAImpl6RegionELm4EEESC_5uint2
-kernel id = 1
-grid dim = (12,60,1)
-block dim = (32,4,1)
-shmem = 4096
-nregs = 39
-binary version = 80
-cuda stream id = 2
-shmem base_addr = 0x00007f3c59000000
-local mem base_addr = 0x00007f3c57000000
-nvbit version = 1.5.3
-accelsim tracer version = 3
Header info loaded for kernel command : ./traces/vpi_sample_11_fisheye-kernel-1.traceg
Processing kernel ./traces/vpi_sample_11_fisheye-kernel-2.traceg
-kernel name = _ZN2nv3vpi4priv17ConvertToYUV420spI6uchar3ZNS1_17ConvertToYUV420spIS3_ZNS1_25ConvertRGBSpaceToYUV420spINS1_5BT601ENS1_9FullRangeES3_JLi2ELi1ELi0EEEEvRNS_4cuda4IMemIhLNS8_6LayoutE0ELi2EEERNS9_I6uchar2LSA_0ELi2EEERKNS8_9IConstMemIT1_LSA_0ELi2EEERK27VPIConvertImageFormatParamsP11CUstream_stEUlS3_E_ZS5_IS6_S7_S3_JLi2ELi1ELi0EEEvSC_SF_SK_SN_SP_EUlS3_E0_EEvSC_SF_RKNSG_IT_LSA_0ELi2EEET0_SH_SN_SP_EUlS3_E0_EEvNS8_6MemRefIhLSA_0ELi2EEENSY_ISD_LSA_0ELi2EEENS8_11ConstMemRefISS_LSA_0ELi2EEE5uint2SW_
-kernel id = 2
-grid dim = (24,60,1)
-block dim = (32,8,1)
-shmem = 0
-nregs = 14
-binary version = 80
-cuda stream id = 2
-shmem base_addr = 0x00007f3c59000000
-local mem base_addr = 0x00007f3c57000000
-nvbit version = 1.5.3
-accelsim tracer version = 3
Header info loaded for kernel command : ./traces/vpi_sample_11_fisheye-kernel-2.traceg
Processing kernel ./traces/vpi_sample_11_fisheye-kernel-3.traceg
-kernel name = _ZN2nv3vpi4priv76_GLOBAL__N__52_tmpxft_000009bc_00000000_11_remap_compute_70_cpp1_ii_8a5b742511gpuGeoTransINS1_13QuadHandlerSPIhL20VPIInterpolationType3ENS_4cuda9IConstMemIhLNS6_6LayoutE0ELi2EEENS6_4IMemIhLS8_0ELi2EEENS7_I6uchar2LS8_0ELi2EEENSA_ISC_LS8_0ELi2EEEEEEEvT_5uint2NS6_11ConstMemRefI6float2LS8_0ELi2EEE18VPIBorderExtension
-kernel id = 3
-grid dim = (12,60,1)
-block dim = (32,4,1)
-shmem = 0
-nregs = 40
-binary version = 80
-cuda stream id = 2
-shmem base_addr = 0x00007f3c59000000
-local mem base_addr = 0x00007f3c57000000
-nvbit version = 1.5.3
-accelsim tracer version = 3
Header info loaded for kernel command : ./traces/vpi_sample_11_fisheye-kernel-3.traceg
Processing kernel ./traces/vpi_sample_11_fisheye-kernel-4.traceg
-kernel name = _ZN2nv3vpi4priv19ConvertFromYUV420spI6uchar3ZNS1_19ConvertFromYUV420spIS3_ZNS1_25ConvertYUV420spToRGBSpaceINS1_5BT601ENS1_9FullRangeES3_JLi2ELi1ELi0EEEEvRNS_4cuda4IMemIT1_LNS8_6LayoutE0ELi2EEERKNS8_9IConstMemIhLSB_0ELi2EEERKNSE_I6uchar2LSB_0ELi2EEERK27VPIConvertImageFormatParamsP11CUstream_stEUlS3_E_ZS5_IS6_S7_S3_JLi2ELi1ELi0EEEvSD_SH_SL_SO_SQ_EUlS3_E0_EEvRNS9_IT_LSB_0ELi2EEESH_SL_T0_SA_SO_SQ_EUlS3_E0_EEvNS8_6MemRefIST_LSB_0ELi2EEENS8_11ConstMemRefIhLSB_0ELi2EEENS10_ISI_LSB_0ELi2EEE5uint2SW_
-kernel id = 4
-grid dim = (24,60,1)
-block dim = (32,8,1)
-shmem = 0
-nregs = 14
-binary version = 80
-cuda stream id = 2
-shmem base_addr = 0x00007f3c59000000
-local mem base_addr = 0x00007f3c57000000
-nvbit version = 1.5.3
-accelsim tracer version = 3
Header info loaded for kernel command : ./traces/vpi_sample_11_fisheye-kernel-4.traceg
Processing kernel ./traces/vpi_sample_12_optflow_lk_refined-kernel-6.traceg
-kernel name = _ZN2nv3vpi4priv84_GLOBAL__N__55_tmpxft_00000944_00000000_11_CUDAImpl_compute_70_cpp1_ii_352aee50_248312ConvertPlaneIh6uchar3ZNS2_12ConvertPlaneIhS4_hZNS1_21ConvertRGBSpaceToLumaINS1_5BT601ENS1_9FullRangeEhS4_JLi2ELi1ELi0EEEEvRNS_4cuda4IMemIT1_LNS9_6LayoutE0ELi2EEERKNS9_9IConstMemIT2_LSC_0ELi2EEERK27VPIConvertImageFormatParamsP11CUstream_stEUlT_E_ZS6_IS7_S8_hS4_JLi2ELi1ELi0EEEvSE_SJ_SM_SO_EUlSP_E0_EEvRNSA_ISP_LSC_0ELi2EEERKNSF_IT0_LSC_0ELi2EEESG_T3_SM_SO_EUlS4_E0_EEvNS9_6MemRefISP_LSC_0ELi2EEENS9_11ConstMemRefISU_LSC_0ELi2EEE5uint2SB_
-kernel id = 6
-grid dim = (24,60,1)
-block dim = (32,8,1)
-shmem = 0
-nregs = 12
-binary version = 80
-cuda stream id = 2
-shmem base_addr = 0x00007f5a05000000
-local mem base_addr = 0x00007f5a03000000
-nvbit version = 1.5.3
-accelsim tracer version = 3
Header info loaded for kernel command : ./traces/vpi_sample_12_optflow_lk_refined-kernel-6.traceg
Processing kernel ./traces/vpi_sample_12_optflow_lk_refined-kernel-7.traceg
-kernel name = _ZN2nv3vpi4priv94_GLOBAL__N__65_tmpxft_000007b4_00000000_11_HalfDownsampleCUDA_compute_70_cpp1_ii_3ae79e54_210614HalfDownsampleIhEEvNS_4cuda6MemRefIT_LNS4_6LayoutE0ELi2EEE5uint2NS4_12Texture2DRefINS4_11ToFloatImplIS6_E4typeEEE
-kernel id = 7
-grid dim = (12,8,1)
-block dim = (128,1,1)
-shmem = 8192
-nregs = 38
-binary version = 80
-cuda stream id = 2
-shmem base_addr = 0x00007f5a05000000
-local mem base_addr = 0x00007f5a03000000
-nvbit version = 1.5.3
-accelsim tracer version = 3
Header info loaded for kernel command : ./traces/vpi_sample_12_optflow_lk_refined-kernel-7.traceg
Processing kernel ./traces/vpi_sample_12_optflow_lk_refined-kernel-8.traceg
-kernel name = _ZN2nv3vpi4priv94_GLOBAL__N__65_tmpxft_000007b4_00000000_11_HalfDownsampleCUDA_compute_70_cpp1_ii_3ae79e54_210614HalfDownsampleIhEEvNS_4cuda6MemRefIT_LNS4_6LayoutE0ELi2EEE5uint2NS4_12Texture2DRefINS4_11ToFloatImplIS6_E4typeEEE
-kernel id = 8
-grid dim = (6,4,1)
-block dim = (128,1,1)
-shmem = 8192
-nregs = 38
-binary version = 80
-cuda stream id = 2
-shmem base_addr = 0x00007f5a05000000
-local mem base_addr = 0x00007f5a03000000
-nvbit version = 1.5.3
-accelsim tracer version = 3
Header info loaded for kernel command : ./traces/vpi_sample_12_optflow_lk_refined-kernel-8.traceg
Processing kernel ./traces/vpi_sample_12_optflow_lk_refined-kernel-9.traceg
-kernel name = _ZN2nv3vpi4priv94_GLOBAL__N__65_tmpxft_000007b4_00000000_11_HalfDownsampleCUDA_compute_70_cpp1_ii_3ae79e54_210614HalfDownsampleIhEEvNS_4cuda6MemRefIT_LNS4_6LayoutE0ELi2EEE5uint2NS4_12Texture2DRefINS4_11ToFloatImplIS6_E4typeEEE
-kernel id = 9
-grid dim = (3,2,1)
-block dim = (128,1,1)
-shmem = 8192
-nregs = 38
-binary version = 80
-cuda stream id = 2
-shmem base_addr = 0x00007f5a05000000
-local mem base_addr = 0x00007f5a03000000
-nvbit version = 1.5.3
-accelsim tracer version = 3
Header info loaded for kernel command : ./traces/vpi_sample_12_optflow_lk_refined-kernel-9.traceg
Processing kernel ./traces/vpi_sample_12_optflow_lk_refined-kernel-10.traceg
-kernel name = _ZN2nv3vpi4priv94_GLOBAL__N__65_tmpxft_000007b4_00000000_11_HalfDownsampleCUDA_compute_70_cpp1_ii_3ae79e54_210614HalfDownsampleIhEEvNS_4cuda6MemRefIT_LNS4_6LayoutE0ELi2EEE5uint2NS4_12Texture2DRefINS4_11ToFloatImplIS6_E4typeEEE
-kernel id = 10
-grid dim = (2,1,1)
-block dim = (128,1,1)
-shmem = 8192
-nregs = 38
-binary version = 80
-cuda stream id = 2
-shmem base_addr = 0x00007f5a05000000
-local mem base_addr = 0x00007f5a03000000
-nvbit version = 1.5.3
-accelsim tracer version = 3
Header info loaded for kernel command : ./traces/vpi_sample_12_optflow_lk_refined-kernel-10.traceg
Processing kernel ./traces/vpi_sample_12_optflow_lk_refined-kernel-11.traceg
-kernel name = _ZN2nv3vpi4priv12ValidateSizeEPjS2_j
-kernel id = 11
-grid dim = (1,1,1)
-block dim = (1,1,1)
-shmem = 0
-nregs = 10
-binary version = 80
-cuda stream id = 2
-shmem base_addr = 0x00007f5a05000000
-local mem base_addr = 0x00007f5a03000000
-nvbit version = 1.5.3
-accelsim tracer version = 3
Header info loaded for kernel command : ./traces/vpi_sample_12_optflow_lk_refined-kernel-11.traceg
Processing kernel ./traces/vpi_sample_12_optflow_lk_refined-kernel-12.traceg
-kernel name = _ZN2nv3vpi4priv9LimitSizeEPjS2_S2_j
-kernel id = 12
-grid dim = (1,1,1)
-block dim = (1,1,1)
-shmem = 0
-nregs = 12
-binary version = 80
-cuda stream id = 2
-shmem base_addr = 0x00007f5a05000000
-local mem base_addr = 0x00007f5a03000000
-nvbit version = 1.5.3
-accelsim tracer version = 3
Header info loaded for kernel command : ./traces/vpi_sample_12_optflow_lk_refined-kernel-12.traceg
Processing kernel ./traces/vpi_sample_12_optflow_lk_refined-kernel-13.traceg
-kernel name = _ZN2nv3vpi4priv14sparseLKKernelILi32EhEEvNS_4cuda6MemRefI11VPIKeypointLNS3_6LayoutE0ELi1EEENS4_IhLS6_0ELi1EEEPKjNS3_11ConstMemRefIS5_LS6_0ELi1EEESC_ffjjNS3_12Texture2DRefIfEESE_jfi
-kernel id = 13
-grid dim = (1025,1,1)
-block dim = (16,2,8)
-shmem = 0
-nregs = 93
-binary version = 80
-cuda stream id = 2
-shmem base_addr = 0x00007f5a05000000
-local mem base_addr = 0x00007f5a03000000
-nvbit version = 1.5.3
-accelsim tracer version = 3
Header info loaded for kernel command : ./traces/vpi_sample_12_optflow_lk_refined-kernel-13.traceg
Processing kernel ./traces/vpi_sample_12_optflow_lk_refined-kernel-14.traceg
-kernel name = _ZN2nv3vpi4priv12ValidateSizeEPjS2_j
-kernel id = 14
-grid dim = (1,1,1)
-block dim = (1,1,1)
-shmem = 0
-nregs = 10
-binary version = 80
-cuda stream id = 2
-shmem base_addr = 0x00007f5a05000000
-local mem base_addr = 0x00007f5a03000000
-nvbit version = 1.5.3
-accelsim tracer version = 3
Header info loaded for kernel command : ./traces/vpi_sample_12_optflow_lk_refined-kernel-14.traceg
Processing kernel ./traces/vpi_sample_12_optflow_lk_refined-kernel-15.traceg
-kernel name = _ZN2nv3vpi4priv9LimitSizeEPjS2_S2_j
-kernel id = 15
-grid dim = (1,1,1)
-block dim = (1,1,1)
-shmem = 0
-nregs = 12
-binary version = 80
-cuda stream id = 2
-shmem base_addr = 0x00007f5a05000000
-local mem base_addr = 0x00007f5a03000000
-nvbit version = 1.5.3
-accelsim tracer version = 3
Header info loaded for kernel command : ./traces/vpi_sample_12_optflow_lk_refined-kernel-15.traceg
Processing kernel ./traces/vpi_sample_12_optflow_lk_refined-kernel-16.traceg
-kernel name = _ZN2nv3vpi4priv14sparseLKKernelILi32EhEEvNS_4cuda6MemRefI11VPIKeypointLNS3_6LayoutE0ELi1EEENS4_IhLS6_0ELi1EEEPKjNS3_11ConstMemRefIS5_LS6_0ELi1EEESC_ffjjNS3_12Texture2DRefIfEESE_jfi
-kernel id = 16
-grid dim = (1025,1,1)
-block dim = (16,2,8)
-shmem = 0
-nregs = 93
-binary version = 80
-cuda stream id = 2
-shmem base_addr = 0x00007f5a05000000
-local mem base_addr = 0x00007f5a03000000
-nvbit version = 1.5.3
-accelsim tracer version = 3
Header info loaded for kernel command : ./traces/vpi_sample_12_optflow_lk_refined-kernel-16.traceg
Processing kernel ./traces/vpi_sample_12_optflow_lk_refined-kernel-17.traceg
-kernel name = _ZN2nv3vpi4priv12ValidateSizeEPjS2_j
-kernel id = 17
-grid dim = (1,1,1)
-block dim = (1,1,1)
-shmem = 0
-nregs = 10
-binary version = 80
-cuda stream id = 2
-shmem base_addr = 0x00007f5a05000000
-local mem base_addr = 0x00007f5a03000000
-nvbit version = 1.5.3
-accelsim tracer version = 3
Header info loaded for kernel command : ./traces/vpi_sample_12_optflow_lk_refined-kernel-17.traceg
Processing kernel ./traces/vpi_sample_12_optflow_lk_refined-kernel-18.traceg
-kernel name = _ZN2nv3vpi4priv9LimitSizeEPjS2_S2_j
-kernel id = 18
-grid dim = (1,1,1)
-block dim = (1,1,1)
-shmem = 0
-nregs = 12
-binary version = 80
-cuda stream id = 2
-shmem base_addr = 0x00007f5a05000000
-local mem base_addr = 0x00007f5a03000000
-nvbit version = 1.5.3
-accelsim tracer version = 3
Header info loaded for kernel command : ./traces/vpi_sample_12_optflow_lk_refined-kernel-18.traceg
Processing kernel ./traces/vpi_sample_12_optflow_lk_refined-kernel-19.traceg
-kernel name = _ZN2nv3vpi4priv14sparseLKKernelILi32EhEEvNS_4cuda6MemRefI11VPIKeypointLNS3_6LayoutE0ELi1EEENS4_IhLS6_0ELi1EEEPKjNS3_11ConstMemRefIS5_LS6_0ELi1EEESC_ffjjNS3_12Texture2DRefIfEESE_jfi
-kernel id = 19
-grid dim = (1025,1,1)
-block dim = (16,2,8)
-shmem = 0
-nregs = 93
-binary version = 80
-cuda stream id = 2
-shmem base_addr = 0x00007f5a05000000
-local mem base_addr = 0x00007f5a03000000
-nvbit version = 1.5.3
-accelsim tracer version = 3
Header info loaded for kernel command : ./traces/vpi_sample_12_optflow_lk_refined-kernel-19.traceg
Processing kernel ./traces/vpi_sample_12_optflow_lk_refined-kernel-20.traceg
-kernel name = _ZN2nv3vpi4priv12ValidateSizeEPjS2_j
-kernel id = 20
-grid dim = (1,1,1)
-block dim = (1,1,1)
-shmem = 0
-nregs = 10
-binary version = 80
-cuda stream id = 2
-shmem base_addr = 0x00007f5a05000000
-local mem base_addr = 0x00007f5a03000000
-nvbit version = 1.5.3
-accelsim tracer version = 3
Header info loaded for kernel command : ./traces/vpi_sample_12_optflow_lk_refined-kernel-20.traceg
Processing kernel ./traces/vpi_sample_12_optflow_lk_refined-kernel-21.traceg
-kernel name = _ZN2nv3vpi4priv9LimitSizeEPjS2_S2_j
-kernel id = 21
-grid dim = (1,1,1)
-block dim = (1,1,1)
-shmem = 0
-nregs = 12
-binary version = 80
-cuda stream id = 2
-shmem base_addr = 0x00007f5a05000000
-local mem base_addr = 0x00007f5a03000000
-nvbit version = 1.5.3
-accelsim tracer version = 3
Header info loaded for kernel command : ./traces/vpi_sample_12_optflow_lk_refined-kernel-21.traceg
Processing kernel ./traces/vpi_sample_12_optflow_lk_refined-kernel-22.traceg
-kernel name = _ZN2nv3vpi4priv14sparseLKKernelILi32EhEEvNS_4cuda6MemRefI11VPIKeypointLNS3_6LayoutE0ELi1EEENS4_IhLS6_0ELi1EEEPKjNS3_11ConstMemRefIS5_LS6_0ELi1EEESC_ffjjNS3_12Texture2DRefIfEESE_jfi
-kernel id = 22
-grid dim = (1025,1,1)
-block dim = (16,2,8)
-shmem = 0
-nregs = 93
-binary version = 80
-cuda stream id = 2
-shmem base_addr = 0x00007f5a05000000
-local mem base_addr = 0x00007f5a03000000
-nvbit version = 1.5.3
-accelsim tracer version = 3
Header info loaded for kernel command : ./traces/vpi_sample_12_optflow_lk_refined-kernel-22.traceg
Processing kernel ./traces/vpi_sample_12_optflow_lk_refined-kernel-23.traceg
-kernel name = _ZN2nv3vpi4priv12ValidateSizeEPjS2_j
-kernel id = 23
-grid dim = (1,1,1)
-block dim = (1,1,1)
-shmem = 0
-nregs = 10
-binary version = 80
-cuda stream id = 2
-shmem base_addr = 0x00007f5a05000000
-local mem base_addr = 0x00007f5a03000000
-nvbit version = 1.5.3
-accelsim tracer version = 3
Header info loaded for kernel command : ./traces/vpi_sample_12_optflow_lk_refined-kernel-23.traceg
Processing kernel ./traces/vpi_sample_12_optflow_lk_refined-kernel-24.traceg
-kernel name = _ZN2nv3vpi4priv9LimitSizeEPjS2_S2_j
-kernel id = 24
-grid dim = (1,1,1)
-block dim = (1,1,1)
-shmem = 0
-nregs = 12
-binary version = 80
-cuda stream id = 2
-shmem base_addr = 0x00007f5a05000000
-local mem base_addr = 0x00007f5a03000000
-nvbit version = 1.5.3
-accelsim tracer version = 3
Header info loaded for kernel command : ./traces/vpi_sample_12_optflow_lk_refined-kernel-24.traceg
Processing kernel ./traces/vpi_sample_12_optflow_lk_refined-kernel-25.traceg
-kernel name = _ZN2nv3vpi4priv14sparseLKKernelILi32EhEEvNS_4cuda6MemRefI11VPIKeypointLNS3_6LayoutE0ELi1EEENS4_IhLS6_0ELi1EEEPKjNS3_11ConstMemRefIS5_LS6_0ELi1EEESC_ffjjNS3_12Texture2DRefIfEESE_jfi
-kernel id = 25
-grid dim = (1025,1,1)
-block dim = (16,2,8)
-shmem = 0
-nregs = 93
-binary version = 80
-cuda stream id = 2
-shmem base_addr = 0x00007f5a05000000
-local mem base_addr = 0x00007f5a03000000
-nvbit version = 1.5.3
-accelsim tracer version = 3
Header info loaded for kernel command : ./traces/vpi_sample_12_optflow_lk_refined-kernel-25.traceg
launching kernel name: MESA_SHADER_VERTEX_func0_main uid: 1
launching kernel name: MESA_SHADER_VERTEX_func0_main uid: 3
launching kernel name: MESA_SHADER_VERTEX_func0_main uid: 5
launching kernel name: MESA_SHADER_VERTEX_func0_main uid: 7
launching kernel name: MESA_SHADER_VERTEX_func0_main uid: 9
launching kernel name: MESA_SHADER_VERTEX_func0_main uid: 11
launching kernel name: MESA_SHADER_VERTEX_func0_main uid: 13
launching kernel name: MESA_SHADER_VERTEX_func0_main uid: 15
launching kernel name: MESA_SHADER_VERTEX_func0_main uid: 17
launching kernel name: MESA_SHADER_VERTEX_func0_main uid: 19
launching kernel name: MESA_SHADER_VERTEX_func0_main uid: 21
launching kernel name: MESA_SHADER_VERTEX_func0_main uid: 23
launching kernel name: MESA_SHADER_VERTEX_func0_main uid: 25
launching kernel name: MESA_SHADER_VERTEX_func0_main uid: 27
launching kernel name: MESA_SHADER_VERTEX_func0_main uid: 29
launching kernel name: MESA_SHADER_VERTEX_func0_main uid: 31
launching kernel name: MESA_SHADER_VERTEX_func0_main uid: 33
launching kernel name: MESA_SHADER_VERTEX_func0_main uid: 35
launching kernel name: MESA_SHADER_VERTEX_func0_main uid: 37
launching kernel name: MESA_SHADER_VERTEX_func0_main uid: 39
launching kernel name: MESA_SHADER_VERTEX_func0_main uid: 41
launching kernel name: MESA_SHADER_VERTEX_func0_main uid: 43
launching kernel name: MESA_SHADER_VERTEX_func0_main uid: 45
launching kernel name: MESA_SHADER_VERTEX_func0_main uid: 47
launching kernel name: _ZN2nv3vpi4priv84_GLOBAL__N__55_tmpxft_00000944_00000000_11_CUDAImpl_compute_70_cpp1_ii_352aee50_248312ConvertPlaneIs6uchar3ZNS2_12ConvertPlaneIsS4_sZNS1_21ConvertRGBSpaceToLumaINS1_5BT601ENS1_9FullRangeEsS4_JLi2ELi1ELi0EEEEvRNS_4cuda4IMemIT1_LNS9_6LayoutE0ELi2EEERKNS9_9IConstMemIT2_LSC_0ELi2EEERK27VPIConvertImageFormatParamsP11CUstream_stEUlT_E_ZS6_IS7_S8_sS4_JLi2ELi1ELi0EEEvSE_SJ_SM_SO_EUlSP_E0_EEvRNSA_ISP_LSC_0ELi2EEERKNSF_IT0_LSC_0ELi2EEESG_T3_SM_SO_EUlS4_E0_EEvNS9_6MemRefISP_LSC_0ELi2EEENS9_11ConstMemRefISU_LSC_0ELi2EEE5uint2SB_ uid: 49
GPGPU-Sim: Reconfigure L1 cache to 128KB
MESA_SHADER_VERTEX_func0_main_0 thread block = 0,0,0
MESA_SHADER_VERTEX_func0_main_0 thread block = 1,0,0
MESA_SHADER_VERTEX_func0_main_0 thread block = 2,0,0
MESA_SHADER_VERTEX_func0_main_0 thread block = 3,0,0
MESA_SHADER_VERTEX_func0_main_0 thread block = 4,0,0
MESA_SHADER_VERTEX_func0_main_0 thread block = 5,0,0
MESA_SHADER_VERTEX_func0_main_0 thread block = 6,0,0
MESA_SHADER_VERTEX_func0_main_0 thread block = 7,0,0
MESA_SHADER_VERTEX_func0_main_0 thread block = 8,0,0
MESA_SHADER_VERTEX_func0_main_0 thread block = 9,0,0
MESA_SHADER_VERTEX_func0_main_0 thread block = 10,0,0
MESA_SHADER_VERTEX_func0_main_0 thread block = 11,0,0
MESA_SHADER_VERTEX_func0_main_0 thread block = 12,0,0
MESA_SHADER_VERTEX_func0_main_0 thread block = 13,0,0
MESA_SHADER_VERTEX_func0_main_0 thread block = 14,0,0
MESA_SHADER_VERTEX_func0_main_0 thread block = 15,0,0
MESA_SHADER_VERTEX_func0_main_0 thread block = 16,0,0
MESA_SHADER_VERTEX_func0_main_0 thread block = 17,0,0
MESA_SHADER_VERTEX_func0_main_0 thread block = 18,0,0
[...]
	L2_cache_stats_breakdown[L2_WR_ALLOC_R][MSHR_HIT] = 0
	L2_cache_stats_breakdown[GLOBAL_ACC_R][TOTAL_ACCESS] = 7568
	L2_cache_stats_breakdown[GLOBAL_ACC_W][TOTAL_ACCESS] = 19770
L2_total_cache_reservation_fail_breakdown:
L2_cache_data_port_util = 0.432
L2_cache_fill_port_util = 0.013

icnt_total_pkts_mem_to_simt=267721
icnt_total_pkts_simt_to_mem=279866
LD_mem_lat_dist  0 0 0 0 0 0 0 0 0 0 0 0 0 0 0 0 0 0 0 0 0 0 0 0 0 0 0
ST_mem_lat_dist  0 0 0 0 0 0 0 0 0 0 0 0 0 0 0 0 0 0 0 0 0 0 0 0 0 0 0
----------------------------Interconnect-DETAILS--------------------------------
Req_Network_injected_packets_num = 279866
Req_Network_cycles = 18245
Req_Network_injected_packets_per_cycle =      15.3393 
Req_Network_conflicts_per_cycle =      14.8295
Req_Network_conflicts_per_cycle_util =      21.5161
Req_Bank_Level_Parallism =      21.6791
Req_Network_in_buffer_full_per_cycle =       5.3998
Req_Network_in_buffer_avg_util =     183.7027
Req_Network_out_buffer_full_per_cycle =       0.0000
Req_Network_out_buffer_avg_util =       0.4669

Reply_Network_injected_packets_num = 267865
Reply_Network_cycles = 18245
Reply_Network_injected_packets_per_cycle =       14.6816
Reply_Network_conflicts_per_cycle =        6.6345
Reply_Network_conflicts_per_cycle_util =       9.7815
Reply_Bank_Level_Parallism =      21.6360
Reply_Network_in_buffer_full_per_cycle =       0.0000
Reply_Network_in_buffer_avg_util =       5.5189
Reply_Network_out_buffer_full_per_cycle =       0.0000
Reply_Network_out_buffer_avg_util =       0.3190
----------------------------END-of-Interconnect-DETAILS-------------------------


gpgpu_simulation_time = 0 days, 0 hrs, 2 min, 43 sec (163 sec)
gpgpu_simulation_rate = 94761 (inst/sec)
gpgpu_simulation_rate = 111 (cycle/sec)
gpgpu_silicon_slowdown = 10198198x
launching kernel name: MESA_SHADER_FRAGMENT_func1_main uid: 6
GPGPU-Sim: Reconfigure L1 cache to 128KB
_ZN2nv3vpi4priv84_GLOBAL__N__55_tmpxft_00000944_00000000_11_CUDAImpl_compute_70_cpp1_ii_352aee50_248312ConvertPlaneIs6uchar3ZNS2_12ConvertPlaneIsS4_sZNS1_21ConvertRGBSpaceToLumaINS1_5BT601ENS1_9FullRangeEsS4_JLi2ELi1ELi0EEEEvRNS_4cuda4IMemIT1_LNS9_6LayoutE0ELi2EEERKNS9_9IConstMemIT2_LSC_0ELi2EEERK27VPIConvertImageFormatParamsP11CUstream_stEUlT_E_ZS6_IS7_S8_sS4_JLi2ELi1ELi0EEEvSE_SJ_SM_SO_EUlSP_E0_EEvRNSA_ISP_LSC_0ELi2EEERKNSF_IT0_LSC_0ELi2EEESG_T3_SM_SO_EUlS4_E0_EEvNS9_6MemRefISP_LSC_0ELi2EEENS9_11ConstMemRefISU_LSC_0ELi2EEE5uint2SB__1 thread block = 19,14,0
_ZN2nv3vpi4priv84_GLOBAL__N__55_tmpxft_00000944_00000000_11_CUDAImpl_compute_70_cpp1_ii_352aee50_248312ConvertPlaneIs6uchar3ZNS2_12ConvertPlaneIsS4_sZNS1_21ConvertRGBSpaceToLumaINS1_5BT601ENS1_9FullRangeEsS4_JLi2ELi1ELi0EEEEvRNS_4cuda4IMemIT1_LNS9_6LayoutE0ELi2EEERKNS9_9IConstMemIT2_LSC_0ELi2EEERK27VPIConvertImageFormatParamsP11CUstream_stEUlT_E_ZS6_IS7_S8_sS4_JLi2ELi1ELi0EEEvSE_SJ_SM_SO_EUlSP_E0_EEvRNSA_ISP_LSC_0ELi2EEERKNSF_IT0_LSC_0ELi2EEESG_T3_SM_SO_EUlS4_E0_EEvNS9_6MemRefISP_LSC_0ELi2EEENS9_11ConstMemRefISU_LSC_0ELi2EEE5uint2SB__1 thread block = 20,14,0
_ZN2nv3vpi4priv84_GLOBAL__N__55_tmpxft_00000944_00000000_11_CUDAImpl_compute_70_cpp1_ii_352aee50_248312ConvertPlaneIs6uchar3ZNS2_12ConvertPlaneIsS4_sZNS1_21ConvertRGBSpaceToLumaINS1_5BT601ENS1_9FullRangeEsS4_JLi2ELi1ELi0EEEEvRNS_4cuda4IMemIT1_LNS9_6LayoutE0ELi2EEERKNS9_9IConstMemIT2_LSC_0ELi2EEERK27VPIConvertImageFormatParamsP11CUstream_stEUlT_E_ZS6_IS7_S8_sS4_JLi2ELi1ELi0EEEvSE_SJ_SM_SO_EUlSP_E0_EEvRNSA_ISP_LSC_0ELi2EEERKNSF_IT0_LSC_0ELi2EEESG_T3_SM_SO_EUlS4_E0_EEvNS9_6MemRefISP_LSC_0ELi2EEENS9_11ConstMemRefISU_LSC_0ELi2EEE5uint2SB__1 thread block = 21,14,0
_ZN2nv3vpi4priv84_GLOBAL__N__55_tmpxft_00000944_00000000_11_CUDAImpl_compute_70_cpp1_ii_352aee50_248312ConvertPlaneIs6uchar3ZNS2_12ConvertPlaneIsS4_sZNS1_21ConvertRGBSpaceToLumaINS1_5BT601ENS1_9FullRangeEsS4_JLi2ELi1ELi0EEEEvRNS_4cuda4IMemIT1_LNS9_6LayoutE0ELi2EEERKNS9_9IConstMemIT2_LSC_0ELi2EEERK27VPIConvertImageFormatParamsP11CUstream_stEUlT_E_ZS6_IS7_S8_sS4_JLi2ELi1ELi0EEEvSE_SJ_SM_SO_EUlSP_E0_EEvRNSA_ISP_LSC_0ELi2EEERKNSF_IT0_LSC_0ELi2EEESG_T3_SM_SO_EUlS4_E0_EEvNS9_6MemRefISP_LSC_0ELi2EEENS9_11ConstMemRefISU_LSC_0ELi2EEE5uint2SB__1 thread block = 22,14,0
_ZN2nv3vpi4priv84_GLOBAL__N__55_tmpxft_00000944_00000000_11_CUDAImpl_compute_70_cpp1_ii_352aee50_248312ConvertPlaneIs6uchar3ZNS2_12ConvertPlaneIsS4_sZNS1_21ConvertRGBSpaceToLumaINS1_5BT601ENS1_9FullRangeEsS4_JLi2ELi1ELi0EEEEvRNS_4cuda4IMemIT1_LNS9_6LayoutE0ELi2EEERKNS9_9IConstMemIT2_LSC_0ELi2EEERK27VPIConvertImageFormatParamsP11CUstream_stEUlT_E_ZS6_IS7_S8_sS4_JLi2ELi1ELi0EEEvSE_SJ_SM_SO_EUlSP_E0_EEvRNSA_ISP_LSC_0ELi2EEERKNSF_IT0_LSC_0ELi2EEESG_T3_SM_SO_EUlS4_E0_EEvNS9_6MemRefISP_LSC_0ELi2EEENS9_11ConstMemRefISU_LSC_0ELi2EEE5uint2SB__1 thread block = 23,14,0
_ZN2nv3vpi4priv84_GLOBAL__N__55_tmpxft_00000944_00000000_11_CUDAImpl_compute_70_cpp1_ii_352aee50_248312ConvertPlaneIs6uchar3ZNS2_12ConvertPlaneIsS4_sZNS1_21ConvertRGBSpaceToLumaINS1_5BT601ENS1_9FullRangeEsS4_JLi2ELi1ELi0EEEEvRNS_4cuda4IMemIT1_LNS9_6LayoutE0ELi2EEERKNS9_9IConstMemIT2_LSC_0ELi2EEERK27VPIConvertImageFormatParamsP11CUstream_stEUlT_E_ZS6_IS7_S8_sS4_JLi2ELi1ELi0EEEvSE_SJ_SM_SO_EUlSP_E0_EEvRNSA_ISP_LSC_0ELi2EEERKNSF_IT0_LSC_0ELi2EEESG_T3_SM_SO_EUlS4_E0_EEvNS9_6MemRefISP_LSC_0ELi2EEENS9_11ConstMemRefISU_LSC_0ELi2EEE5uint2SB__1 thread block = 0,15,0
_ZN2nv3vpi4priv84_GLOBAL__N__55_tmpxft_00000944_00000000_11_CUDAImpl_compute_70_cpp1_ii_352aee50_248312ConvertPlaneIs6uchar3ZNS2_12ConvertPlaneIsS4_sZNS1_21ConvertRGBSpaceToLumaINS1_5BT601ENS1_9FullRangeEsS4_JLi2ELi1ELi0EEEEvRNS_4cuda4IMemIT1_LNS9_6LayoutE0ELi2EEERKNS9_9IConstMemIT2_LSC_0ELi2EEERK27VPIConvertImageFormatParamsP11CUstream_stEUlT_E_ZS6_IS7_S8_sS4_JLi2ELi1ELi0EEEvSE_SJ_SM_SO_EUlSP_E0_EEvRNSA_ISP_LSC_0ELi2EEERKNSF_IT0_LSC_0ELi2EEESG_T3_SM_SO_EUlS4_E0_EEvNS9_6MemRefISP_LSC_0ELi2EEENS9_11ConstMemRefISU_LSC_0ELi2EEE5uint2SB__1 thread block = 1,15,0
_ZN2nv3vpi4priv84_GLOBAL__N__55_tmpxft_00000944_00000000_11_CUDAImpl_compute_70_cpp1_ii_352aee50_248312ConvertPlaneIs6uchar3ZNS2_12ConvertPlaneIsS4_sZNS1_21ConvertRGBSpaceToLumaINS1_5BT601ENS1_9FullRangeEsS4_JLi2ELi1ELi0EEEEvRNS_4cuda4IMemIT1_LNS9_6LayoutE0ELi2EEERKNS9_9IConstMemIT2_LSC_0ELi2EEERK27VPIConvertImageFormatParamsP11CUstream_stEUlT_E_ZS6_IS7_S8_sS4_JLi2ELi1ELi0EEEvSE_SJ_SM_SO_EUlSP_E0_EEvRNSA_ISP_LSC_0ELi2EEERKNSF_IT0_LSC_0ELi2EEESG_T3_SM_SO_EUlS4_E0_EEvNS9_6MemRefISP_LSC_0ELi2EEENS9_11ConstMemRefISU_LSC_0ELi2EEE5uint2SB__1 thread block = 2,15,0
_ZN2nv3vpi4priv84_GLOBAL__N__55_tmpxft_00000944_00000000_11_CUDAImpl_compute_70_cpp1_ii_352aee50_248312ConvertPlaneIs6uchar3ZNS2_12ConvertPlaneIsS4_sZNS1_21ConvertRGBSpaceToLumaINS1_5BT601ENS1_9FullRangeEsS4_JLi2ELi1ELi0EEEEvRNS_4cuda4IMemIT1_LNS9_6LayoutE0ELi2EEERKNS9_9IConstMemIT2_LSC_0ELi2EEERK27VPIConvertImageFormatParamsP11CUstream_stEUlT_E_ZS6_IS7_S8_sS4_JLi2ELi1ELi0EEEvSE_SJ_SM_SO_EUlSP_E0_EEvRNSA_ISP_LSC_0ELi2EEERKNSF_IT0_LSC_0ELi2EEESG_T3_SM_SO_EUlS4_E0_EEvNS9_6MemRefISP_LSC_0ELi2EEENS9_11ConstMemRefISU_LSC_0ELi2EEE5uint2SB__1 thread block = 3,15,0
_ZN2nv3vpi4priv84_GLOBAL__N__55_tmpxft_00000944_00000000_11_CUDAImpl_compute_70_cpp1_ii_352aee50_248312ConvertPlaneIs6uchar3ZNS2_12ConvertPlaneIsS4_sZNS1_21ConvertRGBSpaceToLumaINS1_5BT601ENS1_9FullRangeEsS4_JLi2ELi1ELi0EEEEvRNS_4cuda4IMemIT1_LNS9_6LayoutE0ELi2EEERKNS9_9IConstMemIT2_LSC_0ELi2EEERK27VPIConvertImageFormatParamsP11CUstream_stEUlT_E_ZS6_IS7_S8_sS4_JLi2ELi1ELi0EEEvSE_SJ_SM_SO_EUlSP_E0_EEvRNSA_ISP_LSC_0ELi2EEERKNSF_IT0_LSC_0ELi2EEESG_T3_SM_SO_EUlS4_E0_EEvNS9_6MemRefISP_LSC_0ELi2EEENS9_11ConstMemRefISU_LSC_0ELi2EEE5uint2SB__1 thread block = 4,15,0
_ZN2nv3vpi4priv84_GLOBAL__N__55_tmpxft_00000944_00000000_11_CUDAImpl_compute_70_cpp1_ii_352aee50_248312ConvertPlaneIs6uchar3ZNS2_12ConvertPlaneIsS4_sZNS1_21ConvertRGBSpaceToLumaINS1_5BT601ENS1_9FullRangeEsS4_JLi2ELi1ELi0EEEEvRNS_4cuda4IMemIT1_LNS9_6LayoutE0ELi2EEERKNS9_9IConstMemIT2_LSC_0ELi2EEERK27VPIConvertImageFormatParamsP11CUstream_stEUlT_E_ZS6_IS7_S8_sS4_JLi2ELi1ELi0EEEvSE_SJ_SM_SO_EUlSP_E0_EEvRNSA_ISP_LSC_0ELi2EEERKNSF_IT0_LSC_0ELi2EEESG_T3_SM_SO_EUlS4_E0_EEvNS9_6MemRefISP_LSC_0ELi2EEENS9_11ConstMemRefISU_LSC_0ELi2EEE5uint2SB__1 thread block = 5,15,0
_ZN2nv3vpi4priv84_GLOBAL__N__55_tmpxft_00000944_00000000_11_CUDAImpl_compute_70_cpp1_ii_352aee50_248312ConvertPlaneIs6uchar3ZNS2_12ConvertPlaneIsS4_sZNS1_21ConvertRGBSpaceToLumaINS1_5BT601ENS1_9FullRangeEsS4_JLi2ELi1ELi0EEEEvRNS_4cuda4IMemIT1_LNS9_6LayoutE0ELi2EEERKNS9_9IConstMemIT2_LSC_0ELi2EEERK27VPIConvertImageFormatParamsP11CUstream_stEUlT_E_ZS6_IS7_S8_sS4_JLi2ELi1ELi0EEEvSE_SJ_SM_SO_EUlSP_E0_EEvRNSA_ISP_LSC_0ELi2EEERKNSF_IT0_LSC_0ELi2EEESG_T3_SM_SO_EUlS4_E0_EEvNS9_6MemRefISP_LSC_0ELi2EEENS9_11ConstMemRefISU_LSC_0ELi2EEE5uint2SB__1 thread block = 6,15,0
_ZN2nv3vpi4priv84_GLOBAL__N__55_tmpxft_00000944_00000000_11_CUDAImpl_compute_70_cpp1_ii_352aee50_248312ConvertPlaneIs6uchar3ZNS2_12ConvertPlaneIsS4_sZNS1_21ConvertRGBSpaceToLumaINS1_5BT601ENS1_9FullRangeEsS4_JLi2ELi1ELi0EEEEvRNS_4cuda4IMemIT1_LNS9_6LayoutE0ELi2EEERKNS9_9IConstMemIT2_LSC_0ELi2EEERK27VPIConvertImageFormatParamsP11CUstream_stEUlT_E_ZS6_IS7_S8_sS4_JLi2ELi1ELi0EEEvSE_SJ_SM_SO_EUlSP_E0_EEvRNSA_ISP_LSC_0ELi2EEERKNSF_IT0_LSC_0ELi2EEESG_T3_SM_SO_EUlS4_E0_EEvNS9_6MemRefISP_LSC_0ELi2EEENS9_11ConstMemRefISU_LSC_0ELi2EEE5uint2SB__1 thread block = 7,15,0
_ZN2nv3vpi4priv84_GLOBAL__N__55_tmpxft_00000944_00000000_11_CUDAImpl_compute_70_cpp1_ii_352aee50_248312ConvertPlaneIs6uchar3ZNS2_12ConvertPlaneIsS4_sZNS1_21ConvertRGBSpaceToLumaINS1_5BT601ENS1_9FullRangeEsS4_JLi2ELi1ELi0EEEEvRNS_4cuda4IMemIT1_LNS9_6LayoutE0ELi2EEERKNS9_9IConstMemIT2_LSC_0ELi2EEERK27VPIConvertImageFormatParamsP11CUstream_stEUlT_E_ZS6_IS7_S8_sS4_JLi2ELi1ELi0EEEvSE_SJ_SM_SO_EUlSP_E0_EEvRNSA_ISP_LSC_0ELi2EEERKNSF_IT0_LSC_0ELi2EEESG_T3_SM_SO_EUlS4_E0_EEvNS9_6MemRefISP_LSC_0ELi2EEENS9_11ConstMemRefISU_LSC_0ELi2EEE5uint2SB__1 thread block = 8,15,0
_ZN2nv3vpi4priv84_GLOBAL__N__55_tmpxft_00000944_00000000_11_CUDAImpl_compute_70_cpp1_ii_352aee50_248312ConvertPlaneIs6uchar3ZNS2_12ConvertPlaneIsS4_sZNS1_21ConvertRGBSpaceToLumaINS1_5BT601ENS1_9FullRangeEsS4_JLi2ELi1ELi0EEEEvRNS_4cuda4IMemIT1_LNS9_6LayoutE0ELi2EEERKNS9_9IConstMemIT2_LSC_0ELi2EEERK27VPIConvertImageFormatParamsP11CUstream_stEUlT_E_ZS6_IS7_S8_sS4_JLi2ELi1ELi0EEEvSE_SJ_SM_SO_EUlSP_E0_EEvRNSA_ISP_LSC_0ELi2EEERKNSF_IT0_LSC_0ELi2EEESG_T3_SM_SO_EUlS4_E0_EEvNS9_6MemRefISP_LSC_0ELi2EEENS9_11ConstMemRefISU_LSC_0ELi2EEE5uint2SB__1 thread block = 9,15,0
_ZN2nv3vpi4priv84_GLOBAL__N__55_tmpxft_00000944_00000000_11_CUDAImpl_compute_70_cpp1_ii_352aee50_248312ConvertPlaneIs6uchar3ZNS2_12ConvertPlaneIsS4_sZNS1_21ConvertRGBSpaceToLumaINS1_5BT601ENS1_9FullRangeEsS4_JLi2ELi1ELi0EEEEvRNS_4cuda4IMemIT1_LNS9_6LayoutE0ELi2EEERKNS9_9IConstMemIT2_LSC_0ELi2EEERK27VPIConvertImageFormatParamsP11CUstream_stEUlT_E_ZS6_IS7_S8_sS4_JLi2ELi1ELi0EEEvSE_SJ_SM_SO_EUlSP_E0_EEvRNSA_ISP_LSC_0ELi2EEERKNSF_IT0_LSC_0ELi2EEESG_T3_SM_SO_EUlS4_E0_EEvNS9_6MemRefISP_LSC_0ELi2EEENS9_11ConstMemRefISU_LSC_0ELi2EEE5uint2SB__1 thread block = 10,15,0
_ZN2nv3vpi4priv84_GLOBAL__N__55_tmpxft_00000944_00000000_11_CUDAImpl_compute_70_cpp1_ii_352aee50_248312ConvertPlaneIs6uchar3ZNS2_12ConvertPlaneIsS4_sZNS1_21ConvertRGBSpaceToLumaINS1_5BT601ENS1_9FullRangeEsS4_JLi2ELi1ELi0EEEEvRNS_4cuda4IMemIT1_LNS9_6LayoutE0ELi2EEERKNS9_9IConstMemIT2_LSC_0ELi2EEERK27VPIConvertImageFormatParamsP11CUstream_stEUlT_E_ZS6_IS7_S8_sS4_JLi2ELi1ELi0EEEvSE_SJ_SM_SO_EUlSP_E0_EEvRNSA_ISP_LSC_0ELi2EEERKNSF_IT0_LSC_0ELi2EEESG_T3_SM_SO_EUlS4_E0_EEvNS9_6MemRefISP_LSC_0ELi2EEENS9_11ConstMemRefISU_LSC_0ELi2EEE5uint2SB__1 thread block = 11,15,0
_ZN2nv3vpi4priv84_GLOBAL__N__55_tmpxft_00000944_00000000_11_CUDAImpl_compute_70_cpp1_ii_352aee50_248312ConvertPlaneIs6uchar3ZNS2_12ConvertPlaneIsS4_sZNS1_21ConvertRGBSpaceToLumaINS1_5BT601ENS1_9FullRangeEsS4_JLi2ELi1ELi0EEEEvRNS_4cuda4IMemIT1_LNS9_6LayoutE0ELi2EEERKNS9_9IConstMemIT2_LSC_0ELi2EEERK27VPIConvertImageFormatParamsP11CUstream_stEUlT_E_ZS6_IS7_S8_sS4_JLi2ELi1ELi0EEEvSE_SJ_SM_SO_EUlSP_E0_EEvRNSA_ISP_LSC_0ELi2EEERKNSF_IT0_LSC_0ELi2EEESG_T3_SM_SO_EUlS4_E0_EEvNS9_6MemRefISP_LSC_0ELi2EEENS9_11ConstMemRefISU_LSC_0ELi2EEE5uint2SB__1 thread block = 12,15,0
_ZN2nv3vpi4priv84_GLOBAL__N__55_tmpxft_00000944_00000000_11_CUDAImpl_compute_70_cpp1_ii_352aee50_248312ConvertPlaneIs6uchar3ZNS2_12ConvertPlaneIsS4_sZNS1_21ConvertRGBSpaceToLumaINS1_5BT601ENS1_9FullRangeEsS4_JLi2ELi1ELi0EEEEvRNS_4cuda4IMemIT1_LNS9_6LayoutE0ELi2EEERKNS9_9IConstMemIT2_LSC_0ELi2EEERK27VPIConvertImageFormatParamsP11CUstream_stEUlT_E_ZS6_IS7_S8_sS4_JLi2ELi1ELi0EEEvSE_SJ_SM_SO_EUlSP_E0_EEvRNSA_ISP_LSC_0ELi2EEERKNSF_IT0_LSC_0ELi2EEESG_T3_SM_SO_EUlS4_E0_EEvNS9_6MemRefISP_LSC_0ELi2EEENS9_11ConstMemRefISU_LSC_0ELi2EEE5uint2SB__1 thread block = 13,15,0
_ZN2nv3vpi4priv84_GLOBAL__N__55_tmpxft_00000944_00000000_11_CUDAImpl_compute_70_cpp1_ii_352aee50_248312ConvertPlaneIs6uchar3ZNS2_12ConvertPlaneIsS4_sZNS1_21ConvertRGBSpaceToLumaINS1_5BT601ENS1_9FullRangeEsS4_JLi2ELi1ELi0EEEEvRNS_4cuda4IMemIT1_LNS9_6LayoutE0ELi2EEERKNS9_9IConstMemIT2_LSC_0ELi2EEERK27VPIConvertImageFormatParamsP11CUstream_stEUlT_E_ZS6_IS7_S8_sS4_JLi2ELi1ELi0EEEvSE_SJ_SM_SO_EUlSP_E0_EEvRNSA_ISP_LSC_0ELi2EEERKNSF_IT0_LSC_0ELi2EEESG_T3_SM_SO_EUlS4_E0_EEvNS9_6MemRefISP_LSC_0ELi2EEENS9_11ConstMemRefISU_LSC_0ELi2EEE5uint2SB__1 thread block = 14,15,0
_ZN2nv3vpi4priv84_GLOBAL__N__55_tmpxft_00000944_00000000_11_CUDAImpl_compute_70_cpp1_ii_352aee50_248312ConvertPlaneIs6uchar3ZNS2_12ConvertPlaneIsS4_sZNS1_21ConvertRGBSpaceToLumaINS1_5BT601ENS1_9FullRangeEsS4_JLi2ELi1ELi0EEEEvRNS_4cuda4IMemIT1_LNS9_6LayoutE0ELi2EEERKNS9_9IConstMemIT2_LSC_0ELi2EEERK27VPIConvertImageFormatParamsP11CUstream_stEUlT_E_ZS6_IS7_S8_sS4_JLi2ELi1ELi0EEEvSE_SJ_SM_SO_EUlSP_E0_EEvRNSA_ISP_LSC_0ELi2EEERKNSF_IT0_LSC_0ELi2EEESG_T3_SM_SO_EUlS4_E0_EEvNS9_6MemRefISP_LSC_0ELi2EEENS9_11ConstMemRefISU_LSC_0ELi2EEE5uint2SB__1 thread block = 15,15,0
_ZN2nv3vpi4priv84_GLOBAL__N__55_tmpxft_00000944_00000000_11_CUDAImpl_compute_70_cpp1_ii_352aee50_248312ConvertPlaneIs6uchar3ZNS2_12ConvertPlaneIsS4_sZNS1_21ConvertRGBSpaceToLumaINS1_5BT601ENS1_9FullRangeEsS4_JLi2ELi1ELi0EEEEvRNS_4cuda4IMemIT1_LNS9_6LayoutE0ELi2EEERKNS9_9IConstMemIT2_LSC_0ELi2EEERK27VPIConvertImageFormatParamsP11CUstream_stEUlT_E_ZS6_IS7_S8_sS4_JLi2ELi1ELi0EEEvSE_SJ_SM_SO_EUlSP_E0_EEvRNSA_ISP_LSC_0ELi2EEERKNSF_IT0_LSC_0ELi2EEESG_T3_SM_SO_EUlS4_E0_EEvNS9_6MemRefISP_LSC_0ELi2EEENS9_11ConstMemRefISU_LSC_0ELi2EEE5uint2SB__1 thread block = 16,15,0
_ZN2nv3vpi4priv84_GLOBAL__N__55_tmpxft_00000944_00000000_11_CUDAImpl_compute_70_cpp1_ii_352aee50_248312ConvertPlaneIs6uchar3ZNS2_12ConvertPlaneIsS4_sZNS1_21ConvertRGBSpaceToLumaINS1_5BT601ENS1_9FullRangeEsS4_JLi2ELi1ELi0EEEEvRNS_4cuda4IMemIT1_LNS9_6LayoutE0ELi2EEERKNS9_9IConstMemIT2_LSC_0ELi2EEERK27VPIConvertImageFormatParamsP11CUstream_stEUlT_E_ZS6_IS7_S8_sS4_JLi2ELi1ELi0EEEvSE_SJ_SM_SO_EUlSP_E0_EEvRNSA_ISP_LSC_0ELi2EEERKNSF_IT0_LSC_0ELi2EEESG_T3_SM_SO_EUlS4_E0_EEvNS9_6MemRefISP_LSC_0ELi2EEENS9_11ConstMemRefISU_LSC_0ELi2EEE5uint2SB__1 thread block = 17,15,0
_ZN2nv3vpi4priv84_GLOBAL__N__55_tmpxft_00000944_00000000_11_CUDAImpl_compute_70_cpp1_ii_352aee50_248312ConvertPlaneIs6uchar3ZNS2_12ConvertPlaneIsS4_sZNS1_21ConvertRGBSpaceToLumaINS1_5BT601ENS1_9FullRangeEsS4_JLi2ELi1ELi0EEEEvRNS_4cuda4IMemIT1_LNS9_6LayoutE0ELi2EEERKNS9_9IConstMemIT2_LSC_0ELi2EEERK27VPIConvertImageFormatParamsP11CUstream_stEUlT_E_ZS6_IS7_S8_sS4_JLi2ELi1ELi0EEEvSE_SJ_SM_SO_EUlSP_E0_EEvRNSA_ISP_LSC_0ELi2EEERKNSF_IT0_LSC_0ELi2EEESG_T3_SM_SO_EUlS4_E0_EEvNS9_6MemRefISP_LSC_0ELi2EEENS9_11ConstMemRefISU_LSC_0ELi2EEE5uint2SB__1 thread block = 18,15,0
_ZN2nv3vpi4priv84_GLOBAL__N__55_tmpxft_00000944_00000000_11_CUDAImpl_compute_70_cpp1_ii_352aee50_248312ConvertPlaneIs6uchar3ZNS2_12ConvertPlaneIsS4_sZNS1_21ConvertRGBSpaceToLumaINS1_5BT601ENS1_9FullRangeEsS4_JLi2ELi1ELi0EEEEvRNS_4cuda4IMemIT1_LNS9_6LayoutE0ELi2EEERKNS9_9IConstMemIT2_LSC_0ELi2EEERK27VPIConvertImageFormatParamsP11CUstream_stEUlT_E_ZS6_IS7_S8_sS4_JLi2ELi1ELi0EEEvSE_SJ_SM_SO_EUlSP_E0_EEvRNSA_ISP_LSC_0ELi2EEERKNSF_IT0_LSC_0ELi2EEESG_T3_SM_SO_EUlS4_E0_EEvNS9_6MemRefISP_LSC_0ELi2EEENS9_11ConstMemRefISU_LSC_0ELi2EEE5uint2SB__1 thread block = 19,15,0
_ZN2nv3vpi4priv84_GLOBAL__N__55_tmpxft_00000944_00000000_11_CUDAImpl_compute_70_cpp1_ii_352aee50_248312ConvertPlaneIs6uchar3ZNS2_12ConvertPlaneIsS4_sZNS1_21ConvertRGBSpaceToLumaINS1_5BT601ENS1_9FullRangeEsS4_JLi2ELi1ELi0EEEEvRNS_4cuda4IMemIT1_LNS9_6LayoutE0ELi2EEERKNS9_9IConstMemIT2_LSC_0ELi2EEERK27VPIConvertImageFormatParamsP11CUstream_stEUlT_E_ZS6_IS7_S8_sS4_JLi2ELi1ELi0EEEvSE_SJ_SM_SO_EUlSP_E0_EEvRNSA_ISP_LSC_0ELi2EEERKNSF_IT0_LSC_0ELi2EEESG_T3_SM_SO_EUlS4_E0_EEvNS9_6MemRefISP_LSC_0ELi2EEENS9_11ConstMemRefISU_LSC_0ELi2EEE5uint2SB__1 thread block = 20,15,0
_ZN2nv3vpi4priv84_GLOBAL__N__55_tmpxft_00000944_00000000_11_CUDAImpl_compute_70_cpp1_ii_352aee50_248312ConvertPlaneIs6uchar3ZNS2_12ConvertPlaneIsS4_sZNS1_21ConvertRGBSpaceToLumaINS1_5BT601ENS1_9FullRangeEsS4_JLi2ELi1ELi0EEEEvRNS_4cuda4IMemIT1_LNS9_6LayoutE0ELi2EEERKNS9_9IConstMemIT2_LSC_0ELi2EEERK27VPIConvertImageFormatParamsP11CUstream_stEUlT_E_ZS6_IS7_S8_sS4_JLi2ELi1ELi0EEEvSE_SJ_SM_SO_EUlSP_E0_EEvRNSA_ISP_LSC_0ELi2EEERKNSF_IT0_LSC_0ELi2EEESG_T3_SM_SO_EUlS4_E0_EEvNS9_6MemRefISP_LSC_0ELi2EEENS9_11ConstMemRefISU_LSC_0ELi2EEE5uint2SB__1 thread block = 21,15,0
_ZN2nv3vpi4priv84_GLOBAL__N__55_tmpxft_00000944_00000000_11_CUDAImpl_compute_70_cpp1_ii_352aee50_248312ConvertPlaneIs6uchar3ZNS2_12ConvertPlaneIsS4_sZNS1_21ConvertRGBSpaceToLumaINS1_5BT601ENS1_9FullRangeEsS4_JLi2ELi1ELi0EEEEvRNS_4cuda4IMemIT1_LNS9_6LayoutE0ELi2EEERKNS9_9IConstMemIT2_LSC_0ELi2EEERK27VPIConvertImageFormatParamsP11CUstream_stEUlT_E_ZS6_IS7_S8_sS4_JLi2ELi1ELi0EEEvSE_SJ_SM_SO_EUlSP_E0_EEvRNSA_ISP_LSC_0ELi2EEERKNSF_IT0_LSC_0ELi2EEESG_T3_SM_SO_EUlS4_E0_EEvNS9_6MemRefISP_LSC_0ELi2EEENS9_11ConstMemRefISU_LSC_0ELi2EEE5uint2SB__1 thread block = 22,15,0
_ZN2nv3vpi4priv84_GLOBAL__N__55_tmpxft_00000944_00000000_11_CUDAImpl_compute_70_cpp1_ii_352aee50_248312ConvertPlaneIs6uchar3ZNS2_12ConvertPlaneIsS4_sZNS1_21ConvertRGBSpaceToLumaINS1_5BT601ENS1_9FullRangeEsS4_JLi2ELi1ELi0EEEEvRNS_4cuda4IMemIT1_LNS9_6LayoutE0ELi2EEERKNS9_9IConstMemIT2_LSC_0ELi2EEERK27VPIConvertImageFormatParamsP11CUstream_stEUlT_E_ZS6_IS7_S8_sS4_JLi2ELi1ELi0EEEvSE_SJ_SM_SO_EUlSP_E0_EEvRNSA_ISP_LSC_0ELi2EEERKNSF_IT0_LSC_0ELi2EEESG_T3_SM_SO_EUlS4_E0_EEvNS9_6MemRefISP_LSC_0ELi2EEENS9_11ConstMemRefISU_LSC_0ELi2EEE5uint2SB__1 thread block = 23,15,0
_ZN2nv3vpi4priv84_GLOBAL__N__55_tmpxft_00000944_00000000_11_CUDAImpl_compute_70_cpp1_ii_352aee50_248312ConvertPlaneIs6uchar3ZNS2_12ConvertPlaneIsS4_sZNS1_21ConvertRGBSpaceToLumaINS1_5BT601ENS1_9FullRangeEsS4_JLi2ELi1ELi0EEEEvRNS_4cuda4IMemIT1_LNS9_6LayoutE0ELi2EEERKNS9_9IConstMemIT2_LSC_0ELi2EEERK27VPIConvertImageFormatParamsP11CUstream_stEUlT_E_ZS6_IS7_S8_sS4_JLi2ELi1ELi0EEEvSE_SJ_SM_SO_EUlSP_E0_EEvRNSA_ISP_LSC_0ELi2EEERKNSF_IT0_LSC_0ELi2EEESG_T3_SM_SO_EUlS4_E0_EEvNS9_6MemRefISP_LSC_0ELi2EEENS9_11ConstMemRefISU_LSC_0ELi2EEE5uint2SB__1 thread block = 0,16,0
_ZN2nv3vpi4priv84_GLOBAL__N__55_tmpxft_00000944_00000000_11_CUDAImpl_compute_70_cpp1_ii_352aee50_248312ConvertPlaneIs6uchar3ZNS2_12ConvertPlaneIsS4_sZNS1_21ConvertRGBSpaceToLumaINS1_5BT601ENS1_9FullRangeEsS4_JLi2ELi1ELi0EEEEvRNS_4cuda4IMemIT1_LNS9_6LayoutE0ELi2EEERKNS9_9IConstMemIT2_LSC_0ELi2EEERK27VPIConvertImageFormatParamsP11CUstream_stEUlT_E_ZS6_IS7_S8_sS4_JLi2ELi1ELi0EEEvSE_SJ_SM_SO_EUlSP_E0_EEvRNSA_ISP_LSC_0ELi2EEERKNSF_IT0_LSC_0ELi2EEESG_T3_SM_SO_EUlS4_E0_EEvNS9_6MemRefISP_LSC_0ELi2EEENS9_11ConstMemRefISU_LSC_0ELi2EEE5uint2SB__1 thread block = 1,16,0
_ZN2nv3vpi4priv84_GLOBAL__N__55_tmpxft_00000944_00000000_11_CUDAImpl_compute_70_cpp1_ii_352aee50_248312ConvertPlaneIs6uchar3ZNS2_12ConvertPlaneIsS4_sZNS1_21ConvertRGBSpaceToLumaINS1_5BT601ENS1_9FullRangeEsS4_JLi2ELi1ELi0EEEEvRNS_4cuda4IMemIT1_LNS9_6LayoutE0ELi2EEERKNS9_9IConstMemIT2_LSC_0ELi2EEERK27VPIConvertImageFormatParamsP11CUstream_stEUlT_E_ZS6_IS7_S8_sS4_JLi2ELi1ELi0EEEvSE_SJ_SM_SO_EUlSP_E0_EEvRNSA_ISP_LSC_0ELi2EEERKNSF_IT0_LSC_0ELi2EEESG_T3_SM_SO_EUlS4_E0_EEvNS9_6MemRefISP_LSC_0ELi2EEENS9_11ConstMemRefISU_LSC_0ELi2EEE5uint2SB__1 thread block = 2,16,0
